/*---------------------------------------------------------------------------*\
| =========                 |                                                 |
| \\      /  F ield         | OpenFOAM: The Open Source CFD Toolbox           |
|  \\    /   O peration     | Version:  2206                                  |
|   \\  /    A nd           | Website:  www.openfoam.com                      |
|    \\/     M anipulation  |                                                 |
\*---------------------------------------------------------------------------*/
Build  : _76d719d1-20220624 OPENFOAM=2206 version=2206
Arch   : "LSB;label=32;scalar=64"
Exec   : pimpleFoam -case fluid3d-openfoam
Date   : Nov 29 2022
Time   : 15:39:04
Host   : Elia
PID    : 12924
I/O    : uncollated
Case   : /home/elia/university/preCICE_new/tutorials/partitioned-pipe-multiscale/fluid3d-openfoam
nProcs : 1
trapFpe: Floating point exception trapping enabled (FOAM_SIGFPE).
fileModificationChecking : Monitoring run-time modified files using timeStampMaster (fileModificationSkew 5, maxFileModificationPolls 20)
allowSystemOperations : Allowing user-supplied system call operations

// * * * * * * * * * * * * * * * * * * * * * * * * * * * * * * * * * * * * * //
Create time

Create mesh for time = 0


PIMPLE: Operating solver in PISO mode

Reading field p

Reading field U

Reading/calculating face flux field phi

Selecting incompressible transport model Newtonian
Selecting turbulence model type laminar
Selecting laminar stress model Stokes
No MRF models present

No finite volume options present
Courant Number mean: 0 max: 0
Courant Number mean: 0 max: 0

Starting time loop

---[preciceAdapter] Loaded the OpenFOAM-preCICE adapter - v1.2.0.
---[preciceAdapter] Reading preciceDict...
(0) 15:39:05 [impl::SolverInterfaceImpl]:184 in configure: [0mThis is preCICE version 2.4.0
(0) 15:39:05 [impl::SolverInterfaceImpl]:185 in configure: [0mRevision info: no-info [git failed to run]
(0) 15:39:05 [impl::SolverInterfaceImpl]:186 in configure: [0mBuild type: Debug
(0) 15:39:05 [impl::SolverInterfaceImpl]:204 in configure: [0mConfiguring preCICE with configuration "./precice-config.xml"
(0) 15:39:05 [impl::SolverInterfaceImpl]:205 in configure: [0mI am participant "Fluid3D"
(0) 15:39:05 [impl::SolverInterfaceImpl]:277 in initialize: [0mSetting up primary communication to coupling partner/s
(0) 15:39:05 [impl::SolverInterfaceImpl]:291 in initialize: [0mPrimary ranks are connected
(0) 15:39:05 [impl::SolverInterfaceImpl]:295 in initialize: [0mSetting up preliminary secondary communication to coupling partner/s
(0) 15:39:05 [partition::ReceivedPartition]:69 in communicate: [0mReceive global mesh Fluid1D-Mesh
(0) 15:39:05 [partition::ProvidedPartition]:121 in prepare: [0mPrepare partition for mesh Fluid3D-Mesh
(0) 15:39:05 [partition::ProvidedPartition]:88 in communicate: [0mGather mesh Fluid3D-Mesh
(0) 15:39:05 [partition::ProvidedPartition]:105 in communicate: [0mSend global mesh Fluid3D-Mesh
(0) 15:39:05 [impl::SolverInterfaceImpl]:303 in initialize: [0mSetting up secondary communication to coupling partner/s
(0) 15:39:05 [impl::SolverInterfaceImpl]:309 in initialize: [0mSecondary ranks are connected
(0) 15:39:05 [impl::SolverInterfaceImpl]:1980 in computeMappings: [0mCompute "read" mapping from mesh "Fluid1D-Mesh" to mesh "Fluid3D-Mesh".
(0) 15:39:05 [impl::SolverInterfaceImpl]:343 in initialize: [0miteration: 1 of 100, time-window: 1, time: 0 of 20, time-window-size: 0.005, max-timestep-length: 0.005, ongoing: yes, time-window-complete: no, write-iteration-checkpoint 
(0) 15:39:05 [cplscheme::BaseCouplingScheme]:183 in initializeData: [0minitializeData is skipped since no data has to be initialized.
---[preciceAdapter] preCICE was configured and initialized
--> FOAM Warning : 
    From void adapterInfo(std::string, std::string)
    in file Utilities.C at line 17
    [36mWarning in the preCICE adapter: [0m
The solver's timestep cannot be larger than the coupling timestep. Adjusting from 0.010000 to 0.005000

---[preciceAdapter] Setting the solver's endTime to infinity to prevent early exits. Only preCICE will control the simulation's endTime. Any functionObject's end() method will be triggered by the adapter. You may disable this behavior in the adapter's configuration.
Courant Number mean: 0 max: 0
Time = 0.005

PIMPLE: iteration 1
smoothSolver:  Solving for Ux, Initial residual = 1, Final residual = 7.02005e-07, No Iterations 9
smoothSolver:  Solving for Uy, Initial residual = 1, Final residual = 7.03099e-07, No Iterations 9
smoothSolver:  Solving for Uz, Initial residual = 1, Final residual = 4.0204e-07, No Iterations 9
DICPCG:  Solving for p, Initial residual = 1, Final residual = 0.000730765, No Iterations 42
DICPCG:  Solving for p, Initial residual = 0.00255882, Final residual = 2.53664e-06, No Iterations 13
time step continuity errors : sum local = 2.05474e-12, global = 6.81822e-16, cumulative = 6.81822e-16
DICPCG:  Solving for p, Initial residual = 0.00569923, Final residual = 4.64048e-06, No Iterations 36
DICPCG:  Solving for p, Initial residual = 0.000148845, Final residual = 1.13893e-07, No Iterations 36
time step continuity errors : sum local = 9.32379e-14, global = -9.79449e-16, cumulative = -2.97627e-16
DICPCG:  Solving for p, Initial residual = 0.00207399, Final residual = 1.42702e-06, No Iterations 36
DICPCG:  Solving for p, Initial residual = 4.39435e-05, Final residual = 4.39082e-08, No Iterations 24
time step continuity errors : sum local = 3.61926e-14, global = -6.0521e-15, cumulative = -6.34973e-15
DICPCG:  Solving for p, Initial residual = 0.000886228, Final residual = 5.3725e-07, No Iterations 36
DICPCG:  Solving for p, Initial residual = 2.05162e-05, Final residual = 7.82964e-09, No Iterations 26
time step continuity errors : sum local = 6.47336e-15, global = -1.35355e-15, cumulative = -7.70328e-15
ExecutionTime = 0.4 s  ClockTime = 1 s

(0) 15:39:05 [cplscheme::BaseCouplingScheme]:548 in measureConvergence: [0mrelative convergence measure: relative two-norm diff of data "Pressure" = 1.00e+00, limit = 1.00e-03, normalization = 7.23e+00, conv = false
(0) 15:39:05 [impl::SolverInterfaceImpl]:476 in advance: [0miteration: 2 of 100, time-window: 1, time: 0 of 20, time-window-size: 0.005, max-timestep-length: 0.005, ongoing: yes, time-window-complete: no, read-iteration-checkpoint 
--> FOAM Warning : 
    From void adapterInfo(std::string, std::string)
    in file Utilities.C at line 17
    [36mWarning in the preCICE adapter: [0m
The solver's timestep cannot be larger than the coupling timestep. Adjusting from 0.010000 to 0.005000

Courant Number mean: 0 max: 0
Time = 0.005

PIMPLE: iteration 1
smoothSolver:  Solving for Ux, Initial residual = 1, Final residual = 7.02005e-07, No Iterations 9
smoothSolver:  Solving for Uy, Initial residual = 1, Final residual = 7.03099e-07, No Iterations 9
smoothSolver:  Solving for Uz, Initial residual = 1, Final residual = 4.0204e-07, No Iterations 9
DICPCG:  Solving for p, Initial residual = 1, Final residual = 0.000730765, No Iterations 42
DICPCG:  Solving for p, Initial residual = 0.00255882, Final residual = 2.53664e-06, No Iterations 13
time step continuity errors : sum local = 4.12777e-12, global = 1.36971e-15, cumulative = -6.33357e-15
DICPCG:  Solving for p, Initial residual = 0.00569923, Final residual = 4.64048e-06, No Iterations 36
DICPCG:  Solving for p, Initial residual = 0.000148845, Final residual = 1.13893e-07, No Iterations 36
time step continuity errors : sum local = 1.87306e-13, global = -1.96762e-15, cumulative = -8.30118e-15
DICPCG:  Solving for p, Initial residual = 0.00207399, Final residual = 1.42702e-06, No Iterations 36
DICPCG:  Solving for p, Initial residual = 4.39435e-05, Final residual = 4.39082e-08, No Iterations 24
time step continuity errors : sum local = 7.27074e-14, global = -1.21581e-14, cumulative = -2.04593e-14
DICPCG:  Solving for p, Initial residual = 0.000886228, Final residual = 5.3725e-07, No Iterations 36
DICPCG:  Solving for p, Initial residual = 2.05162e-05, Final residual = 7.82964e-09, No Iterations 26
time step continuity errors : sum local = 1.30043e-14, global = -2.71915e-15, cumulative = -2.31784e-14
ExecutionTime = 0.5 s  ClockTime = 1 s

(0) 15:39:05 [cplscheme::BaseCouplingScheme]:548 in measureConvergence: [0mrelative convergence measure: relative two-norm diff of data "Pressure" = 5.02e-01, limit = 1.00e-03, normalization = 1.45e+01, conv = false
(0) 15:39:05 [impl::SolverInterfaceImpl]:476 in advance: [0miteration: 3 of 100, time-window: 1, time: 0 of 20, time-window-size: 0.005, max-timestep-length: 0.005, ongoing: yes, time-window-complete: no, read-iteration-checkpoint 
--> FOAM Warning : 
    From void adapterInfo(std::string, std::string)
    in file Utilities.C at line 17
    [36mWarning in the preCICE adapter: [0m
The solver's timestep cannot be larger than the coupling timestep. Adjusting from 0.010000 to 0.005000

Courant Number mean: 0 max: 0
Time = 0.005

PIMPLE: iteration 1
smoothSolver:  Solving for Ux, Initial residual = 1, Final residual = 7.02005e-07, No Iterations 9
smoothSolver:  Solving for Uy, Initial residual = 1, Final residual = 7.03099e-07, No Iterations 9
smoothSolver:  Solving for Uz, Initial residual = 1, Final residual = 4.0204e-07, No Iterations 9
DICPCG:  Solving for p, Initial residual = 1, Final residual = 0.000730765, No Iterations 42
DICPCG:  Solving for p, Initial residual = 0.00255882, Final residual = 2.53664e-06, No Iterations 13
time step continuity errors : sum local = 6.17721e-12, global = 2.04978e-15, cumulative = -2.11286e-14
DICPCG:  Solving for p, Initial residual = 0.00569923, Final residual = 4.64048e-06, No Iterations 36
DICPCG:  Solving for p, Initial residual = 0.000148845, Final residual = 1.13893e-07, No Iterations 36
time step continuity errors : sum local = 2.80303e-13, global = -2.94454e-15, cumulative = -2.40732e-14
DICPCG:  Solving for p, Initial residual = 0.00207399, Final residual = 1.42702e-06, No Iterations 36
DICPCG:  Solving for p, Initial residual = 4.39435e-05, Final residual = 4.39082e-08, No Iterations 24
time step continuity errors : sum local = 1.08807e-13, global = -1.81946e-14, cumulative = -4.22678e-14
DICPCG:  Solving for p, Initial residual = 0.000886228, Final residual = 5.3725e-07, No Iterations 36
DICPCG:  Solving for p, Initial residual = 2.05162e-05, Final residual = 7.82964e-09, No Iterations 26
time step continuity errors : sum local = 1.9461e-14, global = -4.06921e-15, cumulative = -4.6337e-14
ExecutionTime = 0.61 s  ClockTime = 1 s

(0) 15:39:05 [cplscheme::BaseCouplingScheme]:548 in measureConvergence: [0mrelative convergence measure: relative two-norm diff of data "Pressure" = 3.84e+01, limit = 1.00e-03, normalization = 2.17e+01, conv = false
(0) 15:39:05 [impl::SolverInterfaceImpl]:476 in advance: [0miteration: 4 of 100, time-window: 1, time: 0 of 20, time-window-size: 0.005, max-timestep-length: 0.005, ongoing: yes, time-window-complete: no, read-iteration-checkpoint 
--> FOAM Warning : 
    From void adapterInfo(std::string, std::string)
    in file Utilities.C at line 17
    [36mWarning in the preCICE adapter: [0m
The solver's timestep cannot be larger than the coupling timestep. Adjusting from 0.010000 to 0.005000

Courant Number mean: 0 max: 0
Time = 0.005

PIMPLE: iteration 1
smoothSolver:  Solving for Ux, Initial residual = 1, Final residual = 7.02005e-07, No Iterations 9
smoothSolver:  Solving for Uy, Initial residual = 1, Final residual = 7.03099e-07, No Iterations 9
smoothSolver:  Solving for Uz, Initial residual = 1, Final residual = 4.0204e-07, No Iterations 9
DICPCG:  Solving for p, Initial residual = 1, Final residual = 0.000730765, No Iterations 42
DICPCG:  Solving for p, Initial residual = 0.00255882, Final residual = 2.53664e-06, No Iterations 13
time step continuity errors : sum local = 8.2452e-12, global = 2.736e-15, cumulative = -4.3601e-14
DICPCG:  Solving for p, Initial residual = 0.00569923, Final residual = 4.64048e-06, No Iterations 36
DICPCG:  Solving for p, Initial residual = 0.000148845, Final residual = 1.13893e-07, No Iterations 36
time step continuity errors : sum local = 3.74143e-13, global = -3.93031e-15, cumulative = -4.75313e-14
DICPCG:  Solving for p, Initial residual = 0.00207399, Final residual = 1.42702e-06, No Iterations 36
DICPCG:  Solving for p, Initial residual = 4.39435e-05, Final residual = 4.39082e-08, No Iterations 24
time step continuity errors : sum local = 1.45233e-13, global = -2.42857e-14, cumulative = -7.1817e-14
DICPCG:  Solving for p, Initial residual = 0.000886228, Final residual = 5.3725e-07, No Iterations 36
DICPCG:  Solving for p, Initial residual = 2.05162e-05, Final residual = 7.82964e-09, No Iterations 26
time step continuity errors : sum local = 2.59761e-14, global = -5.4315e-15, cumulative = -7.72485e-14
ExecutionTime = 0.71 s  ClockTime = 1 s

(0) 15:39:05 [cplscheme::BaseCouplingScheme]:548 in measureConvergence: [0mrelative convergence measure: relative two-norm diff of data "Pressure" = 5.02e-01, limit = 1.00e-03, normalization = 2.90e+01, conv = false
(0) 15:39:05 [impl::SolverInterfaceImpl]:476 in advance: [0miteration: 5 of 100, time-window: 1, time: 0 of 20, time-window-size: 0.005, max-timestep-length: 0.005, ongoing: yes, time-window-complete: no, read-iteration-checkpoint 
--> FOAM Warning : 
    From void adapterInfo(std::string, std::string)
    in file Utilities.C at line 17
    [36mWarning in the preCICE adapter: [0m
The solver's timestep cannot be larger than the coupling timestep. Adjusting from 0.010000 to 0.005000

Courant Number mean: 0 max: 0
Time = 0.005

PIMPLE: iteration 1
smoothSolver:  Solving for Ux, Initial residual = 1, Final residual = 7.02005e-07, No Iterations 9
smoothSolver:  Solving for Uy, Initial residual = 1, Final residual = 7.03099e-07, No Iterations 9
smoothSolver:  Solving for Uz, Initial residual = 1, Final residual = 4.0204e-07, No Iterations 9
DICPCG:  Solving for p, Initial residual = 1, Final residual = 0.000730765, No Iterations 42
DICPCG:  Solving for p, Initial residual = 0.00255882, Final residual = 2.53664e-06, No Iterations 13
time step continuity errors : sum local = 1.03106e-11, global = 3.42137e-15, cumulative = -7.38271e-14
DICPCG:  Solving for p, Initial residual = 0.00569923, Final residual = 4.64048e-06, No Iterations 36
DICPCG:  Solving for p, Initial residual = 0.000148845, Final residual = 1.13893e-07, No Iterations 36
time step continuity errors : sum local = 4.67866e-13, global = -4.91486e-15, cumulative = -7.8742e-14
DICPCG:  Solving for p, Initial residual = 0.00207399, Final residual = 1.42702e-06, No Iterations 36
DICPCG:  Solving for p, Initial residual = 4.39435e-05, Final residual = 4.39082e-08, No Iterations 24
time step continuity errors : sum local = 1.81614e-13, global = -3.03694e-14, cumulative = -1.09111e-13
DICPCG:  Solving for p, Initial residual = 0.000886228, Final residual = 5.3725e-07, No Iterations 36
DICPCG:  Solving for p, Initial residual = 2.05162e-05, Final residual = 7.82964e-09, No Iterations 26
time step continuity errors : sum local = 3.24832e-14, global = -6.7921e-15, cumulative = -1.15903e-13
ExecutionTime = 0.8 s  ClockTime = 1 s

(0) 15:39:05 [cplscheme::BaseCouplingScheme]:548 in measureConvergence: [0mrelative convergence measure: relative two-norm diff of data "Pressure" = 1.97e-01, limit = 1.00e-03, normalization = 3.63e+01, conv = false
(0) 15:39:05 [impl::SolverInterfaceImpl]:476 in advance: [0miteration: 6 of 100, time-window: 1, time: 0 of 20, time-window-size: 0.005, max-timestep-length: 0.005, ongoing: yes, time-window-complete: no, read-iteration-checkpoint 
--> FOAM Warning : 
    From void adapterInfo(std::string, std::string)
    in file Utilities.C at line 17
    [36mWarning in the preCICE adapter: [0m
The solver's timestep cannot be larger than the coupling timestep. Adjusting from 0.010000 to 0.005000

Courant Number mean: 0 max: 0
Time = 0.005

PIMPLE: iteration 1
smoothSolver:  Solving for Ux, Initial residual = 1, Final residual = 7.02005e-07, No Iterations 9
smoothSolver:  Solving for Uy, Initial residual = 1, Final residual = 7.03099e-07, No Iterations 9
smoothSolver:  Solving for Uz, Initial residual = 1, Final residual = 4.0204e-07, No Iterations 9
DICPCG:  Solving for p, Initial residual = 1, Final residual = 0.000730765, No Iterations 42
DICPCG:  Solving for p, Initial residual = 0.00255882, Final residual = 2.53664e-06, No Iterations 13
time step continuity errors : sum local = 1.23734e-11, global = 4.10585e-15, cumulative = -1.11798e-13
DICPCG:  Solving for p, Initial residual = 0.00569923, Final residual = 4.64048e-06, No Iterations 36
DICPCG:  Solving for p, Initial residual = 0.000148845, Final residual = 1.13893e-07, No Iterations 36
time step continuity errors : sum local = 5.61468e-13, global = -5.89813e-15, cumulative = -1.17696e-13
DICPCG:  Solving for p, Initial residual = 0.00207399, Final residual = 1.42702e-06, No Iterations 36
DICPCG:  Solving for p, Initial residual = 4.39435e-05, Final residual = 4.39082e-08, No Iterations 24
time step continuity errors : sum local = 2.17948e-13, global = -3.64451e-14, cumulative = -1.54141e-13
DICPCG:  Solving for p, Initial residual = 0.000886228, Final residual = 5.3725e-07, No Iterations 36
DICPCG:  Solving for p, Initial residual = 2.05162e-05, Final residual = 7.82964e-09, No Iterations 26
time step continuity errors : sum local = 3.89818e-14, global = -8.15094e-15, cumulative = -1.62292e-13
ExecutionTime = 0.92 s  ClockTime = 2 s

(0) 15:39:06 [cplscheme::BaseCouplingScheme]:548 in measureConvergence: [0mrelative convergence measure: relative two-norm diff of data "Pressure" = 5.97e-03, limit = 1.00e-03, normalization = 4.35e+01, conv = false
(0) 15:39:06 [impl::SolverInterfaceImpl]:476 in advance: [0miteration: 7 of 100, time-window: 1, time: 0 of 20, time-window-size: 0.005, max-timestep-length: 0.005, ongoing: yes, time-window-complete: no, read-iteration-checkpoint 
--> FOAM Warning : 
    From void adapterInfo(std::string, std::string)
    in file Utilities.C at line 17
    [36mWarning in the preCICE adapter: [0m
The solver's timestep cannot be larger than the coupling timestep. Adjusting from 0.010000 to 0.005000

Courant Number mean: 0 max: 0
Time = 0.005

PIMPLE: iteration 1
smoothSolver:  Solving for Ux, Initial residual = 1, Final residual = 7.02005e-07, No Iterations 9
smoothSolver:  Solving for Uy, Initial residual = 1, Final residual = 7.03099e-07, No Iterations 9
smoothSolver:  Solving for Uz, Initial residual = 1, Final residual = 4.0204e-07, No Iterations 9
DICPCG:  Solving for p, Initial residual = 1, Final residual = 0.000730765, No Iterations 42
DICPCG:  Solving for p, Initial residual = 0.00255882, Final residual = 2.53664e-06, No Iterations 13
time step continuity errors : sum local = 1.44337e-11, global = 4.78952e-15, cumulative = -1.57502e-13
DICPCG:  Solving for p, Initial residual = 0.00569923, Final residual = 4.64048e-06, No Iterations 36
DICPCG:  Solving for p, Initial residual = 0.000148845, Final residual = 1.13893e-07, No Iterations 36
time step continuity errors : sum local = 6.54957e-13, global = -6.88022e-15, cumulative = -1.64382e-13
DICPCG:  Solving for p, Initial residual = 0.00207399, Final residual = 1.42702e-06, No Iterations 36
DICPCG:  Solving for p, Initial residual = 4.39435e-05, Final residual = 4.39082e-08, No Iterations 24
time step continuity errors : sum local = 2.54238e-13, global = -4.25135e-14, cumulative = -2.06896e-13
DICPCG:  Solving for p, Initial residual = 0.000886228, Final residual = 5.3725e-07, No Iterations 36
DICPCG:  Solving for p, Initial residual = 2.05162e-05, Final residual = 7.82964e-09, No Iterations 26
time step continuity errors : sum local = 4.54726e-14, global = -9.50813e-15, cumulative = -2.16404e-13
ExecutionTime = 1.02 s  ClockTime = 2 s

(0) 15:39:06 [cplscheme::BaseCouplingScheme]:548 in measureConvergence: [0mrelative convergence measure: relative two-norm diff of data "Pressure" = 1.37e-01, limit = 1.00e-03, normalization = 5.08e+01, conv = false
(0) 15:39:06 [impl::SolverInterfaceImpl]:476 in advance: [0miteration: 8 of 100, time-window: 1, time: 0 of 20, time-window-size: 0.005, max-timestep-length: 0.005, ongoing: yes, time-window-complete: no, read-iteration-checkpoint 
--> FOAM Warning : 
    From void adapterInfo(std::string, std::string)
    in file Utilities.C at line 17
    [36mWarning in the preCICE adapter: [0m
The solver's timestep cannot be larger than the coupling timestep. Adjusting from 0.010000 to 0.005000

Courant Number mean: 0 max: 0
Time = 0.005

PIMPLE: iteration 1
smoothSolver:  Solving for Ux, Initial residual = 1, Final residual = 7.02005e-07, No Iterations 9
smoothSolver:  Solving for Uy, Initial residual = 1, Final residual = 7.03099e-07, No Iterations 9
smoothSolver:  Solving for Uz, Initial residual = 1, Final residual = 4.0204e-07, No Iterations 9
DICPCG:  Solving for p, Initial residual = 1, Final residual = 0.000730765, No Iterations 42
DICPCG:  Solving for p, Initial residual = 0.00255882, Final residual = 2.53664e-06, No Iterations 13
time step continuity errors : sum local = 1.64701e-11, global = 5.46527e-15, cumulative = -2.10939e-13
DICPCG:  Solving for p, Initial residual = 0.00569923, Final residual = 4.64048e-06, No Iterations 36
DICPCG:  Solving for p, Initial residual = 0.000148845, Final residual = 1.13893e-07, No Iterations 36
time step continuity errors : sum local = 7.47365e-13, global = -7.85095e-15, cumulative = -2.1879e-13
DICPCG:  Solving for p, Initial residual = 0.00207399, Final residual = 1.42702e-06, No Iterations 36
DICPCG:  Solving for p, Initial residual = 4.39435e-05, Final residual = 4.39082e-08, No Iterations 24
time step continuity errors : sum local = 2.90109e-13, global = -4.85117e-14, cumulative = -2.67302e-13
DICPCG:  Solving for p, Initial residual = 0.000886228, Final residual = 5.3725e-07, No Iterations 36
DICPCG:  Solving for p, Initial residual = 2.05162e-05, Final residual = 7.82964e-09, No Iterations 26
time step continuity errors : sum local = 5.18884e-14, global = -1.08496e-14, cumulative = -2.78151e-13
ExecutionTime = 1.11 s  ClockTime = 2 s

(0) 15:39:06 [cplscheme::BaseCouplingScheme]:548 in measureConvergence: [0mrelative convergence measure: relative two-norm diff of data "Pressure" = 2.54e-01, limit = 1.00e-03, normalization = 5.79e+01, conv = false
(0) 15:39:06 [impl::SolverInterfaceImpl]:476 in advance: [0miteration: 9 of 100, time-window: 1, time: 0 of 20, time-window-size: 0.005, max-timestep-length: 0.005, ongoing: yes, time-window-complete: no, read-iteration-checkpoint 
--> FOAM Warning : 
    From void adapterInfo(std::string, std::string)
    in file Utilities.C at line 17
    [36mWarning in the preCICE adapter: [0m
The solver's timestep cannot be larger than the coupling timestep. Adjusting from 0.010000 to 0.005000

Courant Number mean: 0 max: 0
Time = 0.005

PIMPLE: iteration 1
smoothSolver:  Solving for Ux, Initial residual = 1, Final residual = 7.02005e-07, No Iterations 9
smoothSolver:  Solving for Uy, Initial residual = 1, Final residual = 7.03099e-07, No Iterations 9
smoothSolver:  Solving for Uz, Initial residual = 1, Final residual = 4.0204e-07, No Iterations 9
DICPCG:  Solving for p, Initial residual = 1, Final residual = 0.000730765, No Iterations 42
DICPCG:  Solving for p, Initial residual = 0.00255882, Final residual = 2.53664e-06, No Iterations 13
time step continuity errors : sum local = 1.85252e-11, global = 6.14721e-15, cumulative = -2.72004e-13
DICPCG:  Solving for p, Initial residual = 0.00569923, Final residual = 4.64048e-06, No Iterations 36
DICPCG:  Solving for p, Initial residual = 0.000148845, Final residual = 1.13893e-07, No Iterations 36
time step continuity errors : sum local = 8.4062e-13, global = -8.83058e-15, cumulative = -2.80835e-13
DICPCG:  Solving for p, Initial residual = 0.00207399, Final residual = 1.42702e-06, No Iterations 36
DICPCG:  Solving for p, Initial residual = 4.39435e-05, Final residual = 4.39082e-08, No Iterations 24
time step continuity errors : sum local = 3.26308e-13, global = -5.45649e-14, cumulative = -3.35399e-13
DICPCG:  Solving for p, Initial residual = 0.000886228, Final residual = 5.3725e-07, No Iterations 36
DICPCG:  Solving for p, Initial residual = 2.05162e-05, Final residual = 7.82964e-09, No Iterations 26
time step continuity errors : sum local = 5.83629e-14, global = -1.22034e-14, cumulative = -3.47603e-13
ExecutionTime = 1.2 s  ClockTime = 2 s

(0) 15:39:06 [cplscheme::BaseCouplingScheme]:548 in measureConvergence: [0mrelative convergence measure: relative two-norm diff of data "Pressure" = 3.20e-01, limit = 1.00e-03, normalization = 6.52e+01, conv = false
(0) 15:39:06 [impl::SolverInterfaceImpl]:476 in advance: [0miteration: 10 of 100, time-window: 1, time: 0 of 20, time-window-size: 0.005, max-timestep-length: 0.005, ongoing: yes, time-window-complete: no, read-iteration-checkpoint 
--> FOAM Warning : 
    From void adapterInfo(std::string, std::string)
    in file Utilities.C at line 17
    [36mWarning in the preCICE adapter: [0m
The solver's timestep cannot be larger than the coupling timestep. Adjusting from 0.010000 to 0.005000

Courant Number mean: 0 max: 0
Time = 0.005

PIMPLE: iteration 1
smoothSolver:  Solving for Ux, Initial residual = 1, Final residual = 7.02005e-07, No Iterations 9
smoothSolver:  Solving for Uy, Initial residual = 1, Final residual = 7.03099e-07, No Iterations 9
smoothSolver:  Solving for Uz, Initial residual = 1, Final residual = 4.0204e-07, No Iterations 9
DICPCG:  Solving for p, Initial residual = 1, Final residual = 0.000730765, No Iterations 42
DICPCG:  Solving for p, Initial residual = 0.00255882, Final residual = 2.53664e-06, No Iterations 13
time step continuity errors : sum local = 2.05565e-11, global = 6.82125e-15, cumulative = -3.40782e-13
DICPCG:  Solving for p, Initial residual = 0.00569923, Final residual = 4.64048e-06, No Iterations 36
DICPCG:  Solving for p, Initial residual = 0.000148845, Final residual = 1.13893e-07, No Iterations 36
time step continuity errors : sum local = 9.32794e-13, global = -9.79884e-15, cumulative = -3.5058e-13
DICPCG:  Solving for p, Initial residual = 0.00207399, Final residual = 1.42702e-06, No Iterations 36
DICPCG:  Solving for p, Initial residual = 4.39435e-05, Final residual = 4.39082e-08, No Iterations 24
time step continuity errors : sum local = 3.62087e-13, global = -6.05479e-14, cumulative = -4.11128e-13
DICPCG:  Solving for p, Initial residual = 0.000886228, Final residual = 5.3725e-07, No Iterations 36
DICPCG:  Solving for p, Initial residual = 2.05162e-05, Final residual = 7.82964e-09, No Iterations 26
time step continuity errors : sum local = 6.47624e-14, global = -1.35415e-14, cumulative = -4.2467e-13
ExecutionTime = 1.28 s  ClockTime = 2 s

(0) 15:39:06 [cplscheme::BaseCouplingScheme]:548 in measureConvergence: [0mrelative convergence measure: relative two-norm diff of data "Pressure" = 4.37e-01, limit = 1.00e-03, normalization = 7.23e+01, conv = false
(0) 15:39:06 [impl::SolverInterfaceImpl]:476 in advance: [0miteration: 11 of 100, time-window: 1, time: 0 of 20, time-window-size: 0.005, max-timestep-length: 0.005, ongoing: yes, time-window-complete: no, read-iteration-checkpoint 
--> FOAM Warning : 
    From void adapterInfo(std::string, std::string)
    in file Utilities.C at line 17
    [36mWarning in the preCICE adapter: [0m
The solver's timestep cannot be larger than the coupling timestep. Adjusting from 0.010000 to 0.005000

Courant Number mean: 0 max: 0
Time = 0.005

PIMPLE: iteration 1
smoothSolver:  Solving for Ux, Initial residual = 1, Final residual = 7.02005e-07, No Iterations 9
smoothSolver:  Solving for Uy, Initial residual = 1, Final residual = 7.03099e-07, No Iterations 9
smoothSolver:  Solving for Uz, Initial residual = 1, Final residual = 4.0204e-07, No Iterations 9
DICPCG:  Solving for p, Initial residual = 1, Final residual = 0.000730765, No Iterations 42
DICPCG:  Solving for p, Initial residual = 0.00255882, Final residual = 2.53664e-06, No Iterations 13
time step continuity errors : sum local = 2.26064e-11, global = 7.50146e-15, cumulative = -4.17168e-13
DICPCG:  Solving for p, Initial residual = 0.00569923, Final residual = 4.64048e-06, No Iterations 36
DICPCG:  Solving for p, Initial residual = 0.000148845, Final residual = 1.13893e-07, No Iterations 36
time step continuity errors : sum local = 1.02581e-12, global = -1.0776e-14, cumulative = -4.27944e-13
DICPCG:  Solving for p, Initial residual = 0.00207399, Final residual = 1.42702e-06, No Iterations 36
DICPCG:  Solving for p, Initial residual = 4.39435e-05, Final residual = 4.39082e-08, No Iterations 24
time step continuity errors : sum local = 3.98194e-13, global = -6.65857e-14, cumulative = -4.9453e-13
DICPCG:  Solving for p, Initial residual = 0.000886228, Final residual = 5.3725e-07, No Iterations 36
DICPCG:  Solving for p, Initial residual = 2.05162e-05, Final residual = 7.82964e-09, No Iterations 26
time step continuity errors : sum local = 7.12204e-14, global = -1.48919e-14, cumulative = -5.09422e-13
ExecutionTime = 1.38 s  ClockTime = 2 s

(0) 15:39:06 [cplscheme::BaseCouplingScheme]:548 in measureConvergence: [0mrelative convergence measure: relative two-norm diff of data "Pressure" = 3.56e-01, limit = 1.00e-03, normalization = 7.95e+01, conv = false
(0) 15:39:06 [impl::SolverInterfaceImpl]:476 in advance: [0miteration: 12 of 100, time-window: 1, time: 0 of 20, time-window-size: 0.005, max-timestep-length: 0.005, ongoing: yes, time-window-complete: no, read-iteration-checkpoint 
--> FOAM Warning : 
    From void adapterInfo(std::string, std::string)
    in file Utilities.C at line 17
    [36mWarning in the preCICE adapter: [0m
The solver's timestep cannot be larger than the coupling timestep. Adjusting from 0.010000 to 0.005000

Courant Number mean: 0 max: 0
Time = 0.005

PIMPLE: iteration 1
smoothSolver:  Solving for Ux, Initial residual = 1, Final residual = 7.02005e-07, No Iterations 9
smoothSolver:  Solving for Uy, Initial residual = 1, Final residual = 7.03099e-07, No Iterations 9
smoothSolver:  Solving for Uz, Initial residual = 1, Final residual = 4.0204e-07, No Iterations 9
DICPCG:  Solving for p, Initial residual = 1, Final residual = 0.000730765, No Iterations 42
DICPCG:  Solving for p, Initial residual = 0.00255882, Final residual = 2.53664e-06, No Iterations 13
time step continuity errors : sum local = 2.46537e-11, global = 8.18081e-15, cumulative = -5.01241e-13
DICPCG:  Solving for p, Initial residual = 0.00569923, Final residual = 4.64048e-06, No Iterations 36
DICPCG:  Solving for p, Initial residual = 0.000148845, Final residual = 1.13893e-07, No Iterations 36
time step continuity errors : sum local = 1.11871e-12, global = -1.17519e-14, cumulative = -5.12993e-13
DICPCG:  Solving for p, Initial residual = 0.00207399, Final residual = 1.42702e-06, No Iterations 36
DICPCG:  Solving for p, Initial residual = 4.39435e-05, Final residual = 4.39082e-08, No Iterations 24
time step continuity errors : sum local = 4.34256e-13, global = -7.26159e-14, cumulative = -5.85609e-13
DICPCG:  Solving for p, Initial residual = 0.000886228, Final residual = 5.3725e-07, No Iterations 36
DICPCG:  Solving for p, Initial residual = 2.05162e-05, Final residual = 7.82964e-09, No Iterations 26
time step continuity errors : sum local = 7.76703e-14, global = -1.62405e-14, cumulative = -6.0185e-13
ExecutionTime = 1.46 s  ClockTime = 2 s

(0) 15:39:06 [cplscheme::BaseCouplingScheme]:548 in measureConvergence: [0mrelative convergence measure: relative two-norm diff of data "Pressure" = 6.27e-01, limit = 1.00e-03, normalization = 8.67e+01, conv = false
(0) 15:39:06 [impl::SolverInterfaceImpl]:476 in advance: [0miteration: 13 of 100, time-window: 1, time: 0 of 20, time-window-size: 0.005, max-timestep-length: 0.005, ongoing: yes, time-window-complete: no, read-iteration-checkpoint 
--> FOAM Warning : 
    From void adapterInfo(std::string, std::string)
    in file Utilities.C at line 17
    [36mWarning in the preCICE adapter: [0m
The solver's timestep cannot be larger than the coupling timestep. Adjusting from 0.010000 to 0.005000

Courant Number mean: 0 max: 0
Time = 0.005

PIMPLE: iteration 1
smoothSolver:  Solving for Ux, Initial residual = 1, Final residual = 7.02005e-07, No Iterations 9
smoothSolver:  Solving for Uy, Initial residual = 1, Final residual = 7.03099e-07, No Iterations 9
smoothSolver:  Solving for Uz, Initial residual = 1, Final residual = 4.0204e-07, No Iterations 9
DICPCG:  Solving for p, Initial residual = 1, Final residual = 0.000730765, No Iterations 42
DICPCG:  Solving for p, Initial residual = 0.00255882, Final residual = 2.53664e-06, No Iterations 13
time step continuity errors : sum local = 2.66773e-11, global = 8.85231e-15, cumulative = -5.92997e-13
DICPCG:  Solving for p, Initial residual = 0.00569923, Final residual = 4.64048e-06, No Iterations 36
DICPCG:  Solving for p, Initial residual = 0.000148845, Final residual = 1.13893e-07, No Iterations 36
time step continuity errors : sum local = 1.21054e-12, global = -1.27165e-14, cumulative = -6.05714e-13
DICPCG:  Solving for p, Initial residual = 0.00207399, Final residual = 1.42702e-06, No Iterations 36
DICPCG:  Solving for p, Initial residual = 4.39435e-05, Final residual = 4.39082e-08, No Iterations 24
time step continuity errors : sum local = 4.699e-13, global = -7.85764e-14, cumulative = -6.8429e-13
DICPCG:  Solving for p, Initial residual = 0.000886228, Final residual = 5.3725e-07, No Iterations 36
DICPCG:  Solving for p, Initial residual = 2.05162e-05, Final residual = 7.82964e-09, No Iterations 26
time step continuity errors : sum local = 8.40457e-14, global = -1.75736e-14, cumulative = -7.01864e-13
ExecutionTime = 1.56 s  ClockTime = 2 s

(0) 15:39:06 [cplscheme::BaseCouplingScheme]:548 in measureConvergence: [0mrelative convergence measure: relative two-norm diff of data "Pressure" = 1.26e-01, limit = 1.00e-03, normalization = 9.38e+01, conv = false
(0) 15:39:06 [impl::SolverInterfaceImpl]:476 in advance: [0miteration: 14 of 100, time-window: 1, time: 0 of 20, time-window-size: 0.005, max-timestep-length: 0.005, ongoing: yes, time-window-complete: no, read-iteration-checkpoint 
--> FOAM Warning : 
    From void adapterInfo(std::string, std::string)
    in file Utilities.C at line 17
    [36mWarning in the preCICE adapter: [0m
The solver's timestep cannot be larger than the coupling timestep. Adjusting from 0.010000 to 0.005000

Courant Number mean: 0 max: 0
Time = 0.005

PIMPLE: iteration 1
smoothSolver:  Solving for Ux, Initial residual = 1, Final residual = 7.02005e-07, No Iterations 9
smoothSolver:  Solving for Uy, Initial residual = 1, Final residual = 7.03099e-07, No Iterations 9
smoothSolver:  Solving for Uz, Initial residual = 1, Final residual = 4.0204e-07, No Iterations 9
DICPCG:  Solving for p, Initial residual = 1, Final residual = 0.000730765, No Iterations 42
DICPCG:  Solving for p, Initial residual = 0.00255882, Final residual = 2.53664e-06, No Iterations 13
time step continuity errors : sum local = 2.87196e-11, global = 9.53e-15, cumulative = -6.92334e-13
DICPCG:  Solving for p, Initial residual = 0.00569923, Final residual = 4.64048e-06, No Iterations 36
DICPCG:  Solving for p, Initial residual = 0.000148845, Final residual = 1.13893e-07, No Iterations 36
time step continuity errors : sum local = 1.30321e-12, global = -1.369e-14, cumulative = -7.06024e-13
DICPCG:  Solving for p, Initial residual = 0.00207399, Final residual = 1.42702e-06, No Iterations 36
DICPCG:  Solving for p, Initial residual = 4.39435e-05, Final residual = 4.39082e-08, No Iterations 24
time step continuity errors : sum local = 5.05874e-13, global = -8.45918e-14, cumulative = -7.90616e-13
DICPCG:  Solving for p, Initial residual = 0.000886228, Final residual = 5.3725e-07, No Iterations 36
DICPCG:  Solving for p, Initial residual = 2.05162e-05, Final residual = 7.82964e-09, No Iterations 26
time step continuity errors : sum local = 9.04798e-14, global = -1.89189e-14, cumulative = -8.09534e-13
ExecutionTime = 1.65 s  ClockTime = 2 s

(0) 15:39:06 [cplscheme::BaseCouplingScheme]:548 in measureConvergence: [0mrelative convergence measure: relative two-norm diff of data "Pressure" = 8.37e-02, limit = 1.00e-03, normalization = 1.01e+02, conv = false
(0) 15:39:06 [impl::SolverInterfaceImpl]:476 in advance: [0miteration: 15 of 100, time-window: 1, time: 0 of 20, time-window-size: 0.005, max-timestep-length: 0.005, ongoing: yes, time-window-complete: no, read-iteration-checkpoint 
--> FOAM Warning : 
    From void adapterInfo(std::string, std::string)
    in file Utilities.C at line 17
    [36mWarning in the preCICE adapter: [0m
The solver's timestep cannot be larger than the coupling timestep. Adjusting from 0.010000 to 0.005000

Courant Number mean: 0 max: 0
Time = 0.005

PIMPLE: iteration 1
smoothSolver:  Solving for Ux, Initial residual = 1, Final residual = 7.02005e-07, No Iterations 9
smoothSolver:  Solving for Uy, Initial residual = 1, Final residual = 7.03099e-07, No Iterations 9
smoothSolver:  Solving for Uz, Initial residual = 1, Final residual = 4.0204e-07, No Iterations 9
DICPCG:  Solving for p, Initial residual = 1, Final residual = 0.000730765, No Iterations 42
DICPCG:  Solving for p, Initial residual = 0.00255882, Final residual = 2.53664e-06, No Iterations 13
time step continuity errors : sum local = 3.07592e-11, global = 1.02068e-14, cumulative = -7.99328e-13
DICPCG:  Solving for p, Initial residual = 0.00569923, Final residual = 4.64048e-06, No Iterations 36
DICPCG:  Solving for p, Initial residual = 0.000148845, Final residual = 1.13893e-07, No Iterations 36
time step continuity errors : sum local = 1.39576e-12, global = -1.46622e-14, cumulative = -8.1399e-13
DICPCG:  Solving for p, Initial residual = 0.00207399, Final residual = 1.42702e-06, No Iterations 36
DICPCG:  Solving for p, Initial residual = 4.39435e-05, Final residual = 4.39082e-08, No Iterations 24
time step continuity errors : sum local = 5.41799e-13, global = -9.05992e-14, cumulative = -9.04589e-13
DICPCG:  Solving for p, Initial residual = 0.000886228, Final residual = 5.3725e-07, No Iterations 36
DICPCG:  Solving for p, Initial residual = 2.05162e-05, Final residual = 7.82964e-09, No Iterations 26
time step continuity errors : sum local = 9.69053e-14, global = -2.02625e-14, cumulative = -9.24852e-13
ExecutionTime = 1.76 s  ClockTime = 3 s

(0) 15:39:07 [cplscheme::BaseCouplingScheme]:548 in measureConvergence: [0mrelative convergence measure: relative two-norm diff of data "Pressure" = 9.89e-02, limit = 1.00e-03, normalization = 1.08e+02, conv = false
(0) 15:39:07 [impl::SolverInterfaceImpl]:476 in advance: [0miteration: 16 of 100, time-window: 1, time: 0 of 20, time-window-size: 0.005, max-timestep-length: 0.005, ongoing: yes, time-window-complete: no, read-iteration-checkpoint 
--> FOAM Warning : 
    From void adapterInfo(std::string, std::string)
    in file Utilities.C at line 17
    [36mWarning in the preCICE adapter: [0m
The solver's timestep cannot be larger than the coupling timestep. Adjusting from 0.010000 to 0.005000

Courant Number mean: 0 max: 0
Time = 0.005

PIMPLE: iteration 1
smoothSolver:  Solving for Ux, Initial residual = 1, Final residual = 7.02005e-07, No Iterations 9
smoothSolver:  Solving for Uy, Initial residual = 1, Final residual = 7.03099e-07, No Iterations 9
smoothSolver:  Solving for Uz, Initial residual = 1, Final residual = 4.0204e-07, No Iterations 9
DICPCG:  Solving for p, Initial residual = 1, Final residual = 0.000730765, No Iterations 42
DICPCG:  Solving for p, Initial residual = 0.00255882, Final residual = 2.53664e-06, No Iterations 13
time step continuity errors : sum local = 3.27752e-11, global = 1.08758e-14, cumulative = -9.13976e-13
DICPCG:  Solving for p, Initial residual = 0.00569923, Final residual = 4.64048e-06, No Iterations 36
DICPCG:  Solving for p, Initial residual = 0.000148845, Final residual = 1.13893e-07, No Iterations 36
time step continuity errors : sum local = 1.48724e-12, global = -1.56232e-14, cumulative = -9.29599e-13
DICPCG:  Solving for p, Initial residual = 0.00207399, Final residual = 1.42702e-06, No Iterations 36
DICPCG:  Solving for p, Initial residual = 4.39435e-05, Final residual = 4.39082e-08, No Iterations 24
time step continuity errors : sum local = 5.77309e-13, global = -9.65372e-14, cumulative = -1.02614e-12
DICPCG:  Solving for p, Initial residual = 0.000886228, Final residual = 5.3725e-07, No Iterations 36
DICPCG:  Solving for p, Initial residual = 2.05162e-05, Final residual = 7.82964e-09, No Iterations 26
time step continuity errors : sum local = 1.03257e-13, global = -2.15905e-14, cumulative = -1.04773e-12
ExecutionTime = 1.85 s  ClockTime = 3 s

(0) 15:39:07 [cplscheme::BaseCouplingScheme]:548 in measureConvergence: [0mrelative convergence measure: relative two-norm diff of data "Pressure" = 9.63e-02, limit = 1.00e-03, normalization = 1.15e+02, conv = false
(0) 15:39:07 [impl::SolverInterfaceImpl]:476 in advance: [0miteration: 17 of 100, time-window: 1, time: 0 of 20, time-window-size: 0.005, max-timestep-length: 0.005, ongoing: yes, time-window-complete: no, read-iteration-checkpoint 
--> FOAM Warning : 
    From void adapterInfo(std::string, std::string)
    in file Utilities.C at line 17
    [36mWarning in the preCICE adapter: [0m
The solver's timestep cannot be larger than the coupling timestep. Adjusting from 0.010000 to 0.005000

Courant Number mean: 0 max: 0
Time = 0.005

PIMPLE: iteration 1
smoothSolver:  Solving for Ux, Initial residual = 1, Final residual = 7.02005e-07, No Iterations 9
smoothSolver:  Solving for Uy, Initial residual = 1, Final residual = 7.03099e-07, No Iterations 9
smoothSolver:  Solving for Uz, Initial residual = 1, Final residual = 4.0204e-07, No Iterations 9
DICPCG:  Solving for p, Initial residual = 1, Final residual = 0.000730765, No Iterations 42
DICPCG:  Solving for p, Initial residual = 0.00255882, Final residual = 2.53664e-06, No Iterations 13
time step continuity errors : sum local = 3.48098e-11, global = 1.15509e-14, cumulative = -1.03618e-12
DICPCG:  Solving for p, Initial residual = 0.00569923, Final residual = 4.64048e-06, No Iterations 36
DICPCG:  Solving for p, Initial residual = 0.000148845, Final residual = 1.13893e-07, No Iterations 36
time step continuity errors : sum local = 1.57957e-12, global = -1.65931e-14, cumulative = -1.05277e-12
DICPCG:  Solving for p, Initial residual = 0.00207399, Final residual = 1.42702e-06, No Iterations 36
DICPCG:  Solving for p, Initial residual = 4.39435e-05, Final residual = 4.39082e-08, No Iterations 24
time step continuity errors : sum local = 6.13148e-13, global = -1.0253e-13, cumulative = -1.1553e-12
DICPCG:  Solving for p, Initial residual = 0.000886228, Final residual = 5.3725e-07, No Iterations 36
DICPCG:  Solving for p, Initial residual = 2.05162e-05, Final residual = 7.82964e-09, No Iterations 26
time step continuity errors : sum local = 1.09667e-13, global = -2.29308e-14, cumulative = -1.17823e-12
ExecutionTime = 1.95 s  ClockTime = 3 s

(0) 15:39:07 [cplscheme::BaseCouplingScheme]:548 in measureConvergence: [0mrelative convergence measure: relative two-norm diff of data "Pressure" = 8.79e-02, limit = 1.00e-03, normalization = 1.22e+02, conv = false
(0) 15:39:07 [impl::SolverInterfaceImpl]:476 in advance: [0miteration: 18 of 100, time-window: 1, time: 0 of 20, time-window-size: 0.005, max-timestep-length: 0.005, ongoing: yes, time-window-complete: no, read-iteration-checkpoint 
--> FOAM Warning : 
    From void adapterInfo(std::string, std::string)
    in file Utilities.C at line 17
    [36mWarning in the preCICE adapter: [0m
The solver's timestep cannot be larger than the coupling timestep. Adjusting from 0.010000 to 0.005000

Courant Number mean: 0 max: 0
Time = 0.005

PIMPLE: iteration 1
smoothSolver:  Solving for Ux, Initial residual = 1, Final residual = 7.02005e-07, No Iterations 9
smoothSolver:  Solving for Uy, Initial residual = 1, Final residual = 7.03099e-07, No Iterations 9
smoothSolver:  Solving for Uz, Initial residual = 1, Final residual = 4.0204e-07, No Iterations 9
DICPCG:  Solving for p, Initial residual = 1, Final residual = 0.000730765, No Iterations 42
DICPCG:  Solving for p, Initial residual = 0.00255882, Final residual = 2.53664e-06, No Iterations 13
time step continuity errors : sum local = 3.6842e-11, global = 1.22253e-14, cumulative = -1.166e-12
DICPCG:  Solving for p, Initial residual = 0.00569923, Final residual = 4.64048e-06, No Iterations 36
DICPCG:  Solving for p, Initial residual = 0.000148845, Final residual = 1.13893e-07, No Iterations 36
time step continuity errors : sum local = 1.67178e-12, global = -1.75618e-14, cumulative = -1.18357e-12
DICPCG:  Solving for p, Initial residual = 0.00207399, Final residual = 1.42702e-06, No Iterations 36
DICPCG:  Solving for p, Initial residual = 4.39435e-05, Final residual = 4.39082e-08, No Iterations 24
time step continuity errors : sum local = 6.48944e-13, global = -1.08516e-13, cumulative = -1.29208e-12
DICPCG:  Solving for p, Initial residual = 0.000886228, Final residual = 5.3725e-07, No Iterations 36
DICPCG:  Solving for p, Initial residual = 2.05162e-05, Final residual = 7.82964e-09, No Iterations 26
time step continuity errors : sum local = 1.16069e-13, global = -2.42695e-14, cumulative = -1.31635e-12
ExecutionTime = 2.04 s  ClockTime = 3 s

(0) 15:39:07 [cplscheme::BaseCouplingScheme]:548 in measureConvergence: [0mrelative convergence measure: relative two-norm diff of data "Pressure" = 1.75e+00, limit = 1.00e-03, normalization = 1.30e+02, conv = false
(0) 15:39:07 [impl::SolverInterfaceImpl]:476 in advance: [0miteration: 19 of 100, time-window: 1, time: 0 of 20, time-window-size: 0.005, max-timestep-length: 0.005, ongoing: yes, time-window-complete: no, read-iteration-checkpoint 
--> FOAM Warning : 
    From void adapterInfo(std::string, std::string)
    in file Utilities.C at line 17
    [36mWarning in the preCICE adapter: [0m
The solver's timestep cannot be larger than the coupling timestep. Adjusting from 0.010000 to 0.005000

Courant Number mean: 0 max: 0
Time = 0.005

PIMPLE: iteration 1
smoothSolver:  Solving for Ux, Initial residual = 1, Final residual = 7.02005e-07, No Iterations 9
smoothSolver:  Solving for Uy, Initial residual = 1, Final residual = 7.03099e-07, No Iterations 9
smoothSolver:  Solving for Uz, Initial residual = 1, Final residual = 4.0204e-07, No Iterations 9
DICPCG:  Solving for p, Initial residual = 1, Final residual = 0.000730765, No Iterations 42
DICPCG:  Solving for p, Initial residual = 0.00255882, Final residual = 2.53664e-06, No Iterations 13
time step continuity errors : sum local = 3.88506e-11, global = 1.28918e-14, cumulative = -1.30346e-12
DICPCG:  Solving for p, Initial residual = 0.00569923, Final residual = 4.64048e-06, No Iterations 36
DICPCG:  Solving for p, Initial residual = 0.000148845, Final residual = 1.13893e-07, No Iterations 36
time step continuity errors : sum local = 1.76292e-12, global = -1.85192e-14, cumulative = -1.32198e-12
DICPCG:  Solving for p, Initial residual = 0.00207399, Final residual = 1.42702e-06, No Iterations 36
DICPCG:  Solving for p, Initial residual = 4.39435e-05, Final residual = 4.39082e-08, No Iterations 24
time step continuity errors : sum local = 6.84323e-13, global = -1.14432e-13, cumulative = -1.43641e-12
DICPCG:  Solving for p, Initial residual = 0.000886228, Final residual = 5.3725e-07, No Iterations 36
DICPCG:  Solving for p, Initial residual = 2.05162e-05, Final residual = 7.82964e-09, No Iterations 26
time step continuity errors : sum local = 1.22397e-13, global = -2.55927e-14, cumulative = -1.462e-12
ExecutionTime = 2.14 s  ClockTime = 3 s

(0) 15:39:07 [cplscheme::BaseCouplingScheme]:548 in measureConvergence: [0mrelative convergence measure: relative two-norm diff of data "Pressure" = 1.02e-01, limit = 1.00e-03, normalization = 1.37e+02, conv = false
(0) 15:39:07 [impl::SolverInterfaceImpl]:476 in advance: [0miteration: 20 of 100, time-window: 1, time: 0 of 20, time-window-size: 0.005, max-timestep-length: 0.005, ongoing: yes, time-window-complete: no, read-iteration-checkpoint 
--> FOAM Warning : 
    From void adapterInfo(std::string, std::string)
    in file Utilities.C at line 17
    [36mWarning in the preCICE adapter: [0m
The solver's timestep cannot be larger than the coupling timestep. Adjusting from 0.010000 to 0.005000

Courant Number mean: 0 max: 0
Time = 0.005

PIMPLE: iteration 1
smoothSolver:  Solving for Ux, Initial residual = 1, Final residual = 7.02005e-07, No Iterations 9
smoothSolver:  Solving for Uy, Initial residual = 1, Final residual = 7.03099e-07, No Iterations 9
smoothSolver:  Solving for Uz, Initial residual = 1, Final residual = 4.0204e-07, No Iterations 9
DICPCG:  Solving for p, Initial residual = 1, Final residual = 0.000730765, No Iterations 42
DICPCG:  Solving for p, Initial residual = 0.00255882, Final residual = 2.53664e-06, No Iterations 13
time step continuity errors : sum local = 4.08778e-11, global = 1.35644e-14, cumulative = -1.44844e-12
DICPCG:  Solving for p, Initial residual = 0.00569923, Final residual = 4.64048e-06, No Iterations 36
DICPCG:  Solving for p, Initial residual = 0.000148845, Final residual = 1.13893e-07, No Iterations 36
time step continuity errors : sum local = 1.85491e-12, global = -1.94855e-14, cumulative = -1.46793e-12
DICPCG:  Solving for p, Initial residual = 0.00207399, Final residual = 1.42702e-06, No Iterations 36
DICPCG:  Solving for p, Initial residual = 4.39435e-05, Final residual = 4.39082e-08, No Iterations 24
time step continuity errors : sum local = 7.2003e-13, global = -1.20403e-13, cumulative = -1.58833e-12
DICPCG:  Solving for p, Initial residual = 0.000886228, Final residual = 5.3725e-07, No Iterations 36
DICPCG:  Solving for p, Initial residual = 2.05162e-05, Final residual = 7.82964e-09, No Iterations 26
time step continuity errors : sum local = 1.28784e-13, global = -2.69281e-14, cumulative = -1.61526e-12
ExecutionTime = 2.23 s  ClockTime = 3 s

(0) 15:39:07 [cplscheme::BaseCouplingScheme]:548 in measureConvergence: [0mrelative convergence measure: relative two-norm diff of data "Pressure" = 5.24e-02, limit = 1.00e-03, normalization = 1.44e+02, conv = false
(0) 15:39:07 [impl::SolverInterfaceImpl]:476 in advance: [0miteration: 21 of 100, time-window: 1, time: 0 of 20, time-window-size: 0.005, max-timestep-length: 0.005, ongoing: yes, time-window-complete: no, read-iteration-checkpoint 
--> FOAM Warning : 
    From void adapterInfo(std::string, std::string)
    in file Utilities.C at line 17
    [36mWarning in the preCICE adapter: [0m
The solver's timestep cannot be larger than the coupling timestep. Adjusting from 0.010000 to 0.005000

Courant Number mean: 0 max: 0
Time = 0.005

PIMPLE: iteration 1
smoothSolver:  Solving for Ux, Initial residual = 1, Final residual = 7.02005e-07, No Iterations 9
smoothSolver:  Solving for Uy, Initial residual = 1, Final residual = 7.03099e-07, No Iterations 9
smoothSolver:  Solving for Uz, Initial residual = 1, Final residual = 4.0204e-07, No Iterations 9
DICPCG:  Solving for p, Initial residual = 1, Final residual = 0.000730765, No Iterations 42
DICPCG:  Solving for p, Initial residual = 0.00255882, Final residual = 2.53664e-06, No Iterations 13
time step continuity errors : sum local = 4.29024e-11, global = 1.42363e-14, cumulative = -1.60102e-12
DICPCG:  Solving for p, Initial residual = 0.00569923, Final residual = 4.64048e-06, No Iterations 36
DICPCG:  Solving for p, Initial residual = 0.000148845, Final residual = 1.13893e-07, No Iterations 36
time step continuity errors : sum local = 1.94678e-12, global = -2.04506e-14, cumulative = -1.62147e-12
DICPCG:  Solving for p, Initial residual = 0.00207399, Final residual = 1.42702e-06, No Iterations 36
DICPCG:  Solving for p, Initial residual = 4.39435e-05, Final residual = 4.39082e-08, No Iterations 24
time step continuity errors : sum local = 7.55692e-13, global = -1.26366e-13, cumulative = -1.74784e-12
DICPCG:  Solving for p, Initial residual = 0.000886228, Final residual = 5.3725e-07, No Iterations 36
DICPCG:  Solving for p, Initial residual = 2.05162e-05, Final residual = 7.82964e-09, No Iterations 26
time step continuity errors : sum local = 1.35162e-13, global = -2.82618e-14, cumulative = -1.7761e-12
ExecutionTime = 2.33 s  ClockTime = 3 s

(0) 15:39:07 [cplscheme::BaseCouplingScheme]:548 in measureConvergence: [0mrelative convergence measure: relative two-norm diff of data "Pressure" = 8.90e-03, limit = 1.00e-03, normalization = 1.51e+02, conv = false
(0) 15:39:07 [impl::SolverInterfaceImpl]:476 in advance: [0miteration: 22 of 100, time-window: 1, time: 0 of 20, time-window-size: 0.005, max-timestep-length: 0.005, ongoing: yes, time-window-complete: no, read-iteration-checkpoint 
--> FOAM Warning : 
    From void adapterInfo(std::string, std::string)
    in file Utilities.C at line 17
    [36mWarning in the preCICE adapter: [0m
The solver's timestep cannot be larger than the coupling timestep. Adjusting from 0.010000 to 0.005000

Courant Number mean: 0 max: 0
Time = 0.005

PIMPLE: iteration 1
smoothSolver:  Solving for Ux, Initial residual = 1, Final residual = 7.02005e-07, No Iterations 9
smoothSolver:  Solving for Uy, Initial residual = 1, Final residual = 7.03099e-07, No Iterations 9
smoothSolver:  Solving for Uz, Initial residual = 1, Final residual = 4.0204e-07, No Iterations 9
DICPCG:  Solving for p, Initial residual = 1, Final residual = 0.000730765, No Iterations 42
DICPCG:  Solving for p, Initial residual = 0.00255882, Final residual = 2.53664e-06, No Iterations 13
time step continuity errors : sum local = 4.49033e-11, global = 1.49002e-14, cumulative = -1.7612e-12
DICPCG:  Solving for p, Initial residual = 0.00569923, Final residual = 4.64048e-06, No Iterations 36
DICPCG:  Solving for p, Initial residual = 0.000148845, Final residual = 1.13893e-07, No Iterations 36
time step continuity errors : sum local = 2.03758e-12, global = -2.14044e-14, cumulative = -1.7826e-12
DICPCG:  Solving for p, Initial residual = 0.00207399, Final residual = 1.42702e-06, No Iterations 36
DICPCG:  Solving for p, Initial residual = 4.39435e-05, Final residual = 4.39082e-08, No Iterations 24
time step continuity errors : sum local = 7.90937e-13, global = -1.3226e-13, cumulative = -1.91486e-12
DICPCG:  Solving for p, Initial residual = 0.000886228, Final residual = 5.3725e-07, No Iterations 36
DICPCG:  Solving for p, Initial residual = 2.05162e-05, Final residual = 7.82964e-09, No Iterations 26
time step continuity errors : sum local = 1.41466e-13, global = -2.95799e-14, cumulative = -1.94444e-12
ExecutionTime = 2.42 s  ClockTime = 3 s

(0) 15:39:07 [cplscheme::BaseCouplingScheme]:548 in measureConvergence: [0mrelative convergence measure: relative two-norm diff of data "Pressure" = 5.14e-02, limit = 1.00e-03, normalization = 1.58e+02, conv = false
(0) 15:39:07 [impl::SolverInterfaceImpl]:476 in advance: [0miteration: 23 of 100, time-window: 1, time: 0 of 20, time-window-size: 0.005, max-timestep-length: 0.005, ongoing: yes, time-window-complete: no, read-iteration-checkpoint 
--> FOAM Warning : 
    From void adapterInfo(std::string, std::string)
    in file Utilities.C at line 17
    [36mWarning in the preCICE adapter: [0m
The solver's timestep cannot be larger than the coupling timestep. Adjusting from 0.010000 to 0.005000

Courant Number mean: 0 max: 0
Time = 0.005

PIMPLE: iteration 1
smoothSolver:  Solving for Ux, Initial residual = 1, Final residual = 7.02005e-07, No Iterations 9
smoothSolver:  Solving for Uy, Initial residual = 1, Final residual = 7.03099e-07, No Iterations 9
smoothSolver:  Solving for Uz, Initial residual = 1, Final residual = 4.0204e-07, No Iterations 9
DICPCG:  Solving for p, Initial residual = 1, Final residual = 0.000730765, No Iterations 42
DICPCG:  Solving for p, Initial residual = 0.00255882, Final residual = 2.53664e-06, No Iterations 13
time step continuity errors : sum local = 4.69227e-11, global = 1.55703e-14, cumulative = -1.92887e-12
DICPCG:  Solving for p, Initial residual = 0.00569923, Final residual = 4.64048e-06, No Iterations 36
DICPCG:  Solving for p, Initial residual = 0.000148845, Final residual = 1.13893e-07, No Iterations 36
time step continuity errors : sum local = 2.12921e-12, global = -2.2367e-14, cumulative = -1.95124e-12
DICPCG:  Solving for p, Initial residual = 0.00207399, Final residual = 1.42702e-06, No Iterations 36
DICPCG:  Solving for p, Initial residual = 4.39435e-05, Final residual = 4.39082e-08, No Iterations 24
time step continuity errors : sum local = 8.26507e-13, global = -1.38208e-13, cumulative = -2.08945e-12
DICPCG:  Solving for p, Initial residual = 0.000886228, Final residual = 5.3725e-07, No Iterations 36
DICPCG:  Solving for p, Initial residual = 2.05162e-05, Final residual = 7.82964e-09, No Iterations 26
time step continuity errors : sum local = 1.47828e-13, global = -3.09102e-14, cumulative = -2.12036e-12
ExecutionTime = 2.51 s  ClockTime = 3 s

(0) 15:39:07 [cplscheme::BaseCouplingScheme]:548 in measureConvergence: [0mrelative convergence measure: relative two-norm diff of data "Pressure" = 7.96e-02, limit = 1.00e-03, normalization = 1.65e+02, conv = false
(0) 15:39:07 [impl::SolverInterfaceImpl]:476 in advance: [0miteration: 24 of 100, time-window: 1, time: 0 of 20, time-window-size: 0.005, max-timestep-length: 0.005, ongoing: yes, time-window-complete: no, read-iteration-checkpoint 
--> FOAM Warning : 
    From void adapterInfo(std::string, std::string)
    in file Utilities.C at line 17
    [36mWarning in the preCICE adapter: [0m
The solver's timestep cannot be larger than the coupling timestep. Adjusting from 0.010000 to 0.005000

Courant Number mean: 0 max: 0
Time = 0.005

PIMPLE: iteration 1
smoothSolver:  Solving for Ux, Initial residual = 1, Final residual = 7.02005e-07, No Iterations 9
smoothSolver:  Solving for Uy, Initial residual = 1, Final residual = 7.03099e-07, No Iterations 9
smoothSolver:  Solving for Uz, Initial residual = 1, Final residual = 4.0204e-07, No Iterations 9
DICPCG:  Solving for p, Initial residual = 1, Final residual = 0.000730765, No Iterations 42
DICPCG:  Solving for p, Initial residual = 0.00255882, Final residual = 2.53664e-06, No Iterations 13
time step continuity errors : sum local = 4.89186e-11, global = 1.62326e-14, cumulative = -2.10412e-12
DICPCG:  Solving for p, Initial residual = 0.00569923, Final residual = 4.64048e-06, No Iterations 36
DICPCG:  Solving for p, Initial residual = 0.000148845, Final residual = 1.13893e-07, No Iterations 36
time step continuity errors : sum local = 2.21978e-12, global = -2.33184e-14, cumulative = -2.12744e-12
DICPCG:  Solving for p, Initial residual = 0.00207399, Final residual = 1.42702e-06, No Iterations 36
DICPCG:  Solving for p, Initial residual = 4.39435e-05, Final residual = 4.39082e-08, No Iterations 24
time step continuity errors : sum local = 8.61664e-13, global = -1.44087e-13, cumulative = -2.27153e-12
DICPCG:  Solving for p, Initial residual = 0.000886228, Final residual = 5.3725e-07, No Iterations 36
DICPCG:  Solving for p, Initial residual = 2.05162e-05, Final residual = 7.82964e-09, No Iterations 26
time step continuity errors : sum local = 1.54116e-13, global = -3.2225e-14, cumulative = -2.30376e-12
ExecutionTime = 2.62 s  ClockTime = 4 s

(0) 15:39:08 [cplscheme::BaseCouplingScheme]:548 in measureConvergence: [0mrelative convergence measure: relative two-norm diff of data "Pressure" = 1.49e-01, limit = 1.00e-03, normalization = 1.72e+02, conv = false
(0) 15:39:08 [impl::SolverInterfaceImpl]:476 in advance: [0miteration: 25 of 100, time-window: 1, time: 0 of 20, time-window-size: 0.005, max-timestep-length: 0.005, ongoing: yes, time-window-complete: no, read-iteration-checkpoint 
--> FOAM Warning : 
    From void adapterInfo(std::string, std::string)
    in file Utilities.C at line 17
    [36mWarning in the preCICE adapter: [0m
The solver's timestep cannot be larger than the coupling timestep. Adjusting from 0.010000 to 0.005000

Courant Number mean: 0 max: 0
Time = 0.005

PIMPLE: iteration 1
smoothSolver:  Solving for Ux, Initial residual = 1, Final residual = 7.02005e-07, No Iterations 9
smoothSolver:  Solving for Uy, Initial residual = 1, Final residual = 7.03099e-07, No Iterations 9
smoothSolver:  Solving for Uz, Initial residual = 1, Final residual = 4.0204e-07, No Iterations 9
DICPCG:  Solving for p, Initial residual = 1, Final residual = 0.000730765, No Iterations 42
DICPCG:  Solving for p, Initial residual = 0.00255882, Final residual = 2.53664e-06, No Iterations 13
time step continuity errors : sum local = 5.0933e-11, global = 1.69011e-14, cumulative = -2.28685e-12
DICPCG:  Solving for p, Initial residual = 0.00569923, Final residual = 4.64048e-06, No Iterations 36
DICPCG:  Solving for p, Initial residual = 0.000148845, Final residual = 1.13893e-07, No Iterations 36
time step continuity errors : sum local = 2.31119e-12, global = -2.42787e-14, cumulative = -2.31113e-12
DICPCG:  Solving for p, Initial residual = 0.00207399, Final residual = 1.42702e-06, No Iterations 36
DICPCG:  Solving for p, Initial residual = 4.39435e-05, Final residual = 4.39082e-08, No Iterations 24
time step continuity errors : sum local = 8.97146e-13, global = -1.5002e-13, cumulative = -2.46115e-12
DICPCG:  Solving for p, Initial residual = 0.000886228, Final residual = 5.3725e-07, No Iterations 36
DICPCG:  Solving for p, Initial residual = 2.05162e-05, Final residual = 7.82964e-09, No Iterations 26
time step continuity errors : sum local = 1.60462e-13, global = -3.35519e-14, cumulative = -2.4947e-12
ExecutionTime = 2.71 s  ClockTime = 4 s

(0) 15:39:08 [cplscheme::BaseCouplingScheme]:548 in measureConvergence: [0mrelative convergence measure: relative two-norm diff of data "Pressure" = 1.20e-01, limit = 1.00e-03, normalization = 1.79e+02, conv = false
(0) 15:39:08 [impl::SolverInterfaceImpl]:476 in advance: [0miteration: 26 of 100, time-window: 1, time: 0 of 20, time-window-size: 0.005, max-timestep-length: 0.005, ongoing: yes, time-window-complete: no, read-iteration-checkpoint 
--> FOAM Warning : 
    From void adapterInfo(std::string, std::string)
    in file Utilities.C at line 17
    [36mWarning in the preCICE adapter: [0m
The solver's timestep cannot be larger than the coupling timestep. Adjusting from 0.010000 to 0.005000

Courant Number mean: 0 max: 0
Time = 0.005

PIMPLE: iteration 1
smoothSolver:  Solving for Ux, Initial residual = 1, Final residual = 7.02005e-07, No Iterations 9
smoothSolver:  Solving for Uy, Initial residual = 1, Final residual = 7.03099e-07, No Iterations 9
smoothSolver:  Solving for Uz, Initial residual = 1, Final residual = 4.0204e-07, No Iterations 9
DICPCG:  Solving for p, Initial residual = 1, Final residual = 0.000730765, No Iterations 42
DICPCG:  Solving for p, Initial residual = 0.00255882, Final residual = 2.53664e-06, No Iterations 13
time step continuity errors : sum local = 5.2945e-11, global = 1.75687e-14, cumulative = -2.47714e-12
DICPCG:  Solving for p, Initial residual = 0.00569923, Final residual = 4.64048e-06, No Iterations 36
DICPCG:  Solving for p, Initial residual = 0.000148845, Final residual = 1.13893e-07, No Iterations 36
time step continuity errors : sum local = 2.40249e-12, global = -2.52378e-14, cumulative = -2.50237e-12
DICPCG:  Solving for p, Initial residual = 0.00207399, Final residual = 1.42702e-06, No Iterations 36
DICPCG:  Solving for p, Initial residual = 4.39435e-05, Final residual = 4.39082e-08, No Iterations 24
time step continuity errors : sum local = 9.32586e-13, global = -1.55946e-13, cumulative = -2.65832e-12
DICPCG:  Solving for p, Initial residual = 0.000886228, Final residual = 5.3725e-07, No Iterations 36
DICPCG:  Solving for p, Initial residual = 2.05162e-05, Final residual = 7.82964e-09, No Iterations 26
time step continuity errors : sum local = 1.66801e-13, global = -3.48774e-14, cumulative = -2.6932e-12
ExecutionTime = 2.82 s  ClockTime = 4 s

(0) 15:39:08 [cplscheme::BaseCouplingScheme]:548 in measureConvergence: [0mrelative convergence measure: relative two-norm diff of data "Pressure" = 1.63e-01, limit = 1.00e-03, normalization = 1.86e+02, conv = false
(0) 15:39:08 [impl::SolverInterfaceImpl]:476 in advance: [0miteration: 27 of 100, time-window: 1, time: 0 of 20, time-window-size: 0.005, max-timestep-length: 0.005, ongoing: yes, time-window-complete: no, read-iteration-checkpoint 
--> FOAM Warning : 
    From void adapterInfo(std::string, std::string)
    in file Utilities.C at line 17
    [36mWarning in the preCICE adapter: [0m
The solver's timestep cannot be larger than the coupling timestep. Adjusting from 0.010000 to 0.005000

Courant Number mean: 0 max: 0
Time = 0.005

PIMPLE: iteration 1
smoothSolver:  Solving for Ux, Initial residual = 1, Final residual = 7.02005e-07, No Iterations 9
smoothSolver:  Solving for Uy, Initial residual = 1, Final residual = 7.03099e-07, No Iterations 9
smoothSolver:  Solving for Uz, Initial residual = 1, Final residual = 4.0204e-07, No Iterations 9
DICPCG:  Solving for p, Initial residual = 1, Final residual = 0.000730765, No Iterations 42
DICPCG:  Solving for p, Initial residual = 0.00255882, Final residual = 2.53664e-06, No Iterations 13
time step continuity errors : sum local = 5.49335e-11, global = 1.82285e-14, cumulative = -2.67497e-12
DICPCG:  Solving for p, Initial residual = 0.00569923, Final residual = 4.64048e-06, No Iterations 36
DICPCG:  Solving for p, Initial residual = 0.000148845, Final residual = 1.13893e-07, No Iterations 36
time step continuity errors : sum local = 2.49272e-12, global = -2.61856e-14, cumulative = -2.70115e-12
DICPCG:  Solving for p, Initial residual = 0.00207399, Final residual = 1.42702e-06, No Iterations 36
DICPCG:  Solving for p, Initial residual = 4.39435e-05, Final residual = 4.39082e-08, No Iterations 24
time step continuity errors : sum local = 9.67611e-13, global = -1.61803e-13, cumulative = -2.86296e-12
DICPCG:  Solving for p, Initial residual = 0.000886228, Final residual = 5.3725e-07, No Iterations 36
DICPCG:  Solving for p, Initial residual = 2.05162e-05, Final residual = 7.82964e-09, No Iterations 26
time step continuity errors : sum local = 1.73065e-13, global = -3.61872e-14, cumulative = -2.89914e-12
ExecutionTime = 2.91 s  ClockTime = 4 s

(0) 15:39:08 [cplscheme::BaseCouplingScheme]:548 in measureConvergence: [0mrelative convergence measure: relative two-norm diff of data "Pressure" = 5.76e-02, limit = 1.00e-03, normalization = 1.93e+02, conv = false
(0) 15:39:08 [impl::SolverInterfaceImpl]:476 in advance: [0miteration: 28 of 100, time-window: 1, time: 0 of 20, time-window-size: 0.005, max-timestep-length: 0.005, ongoing: yes, time-window-complete: no, read-iteration-checkpoint 
--> FOAM Warning : 
    From void adapterInfo(std::string, std::string)
    in file Utilities.C at line 17
    [36mWarning in the preCICE adapter: [0m
The solver's timestep cannot be larger than the coupling timestep. Adjusting from 0.010000 to 0.005000

Courant Number mean: 0 max: 0
Time = 0.005

PIMPLE: iteration 1
smoothSolver:  Solving for Ux, Initial residual = 1, Final residual = 7.02005e-07, No Iterations 9
smoothSolver:  Solving for Uy, Initial residual = 1, Final residual = 7.03099e-07, No Iterations 9
smoothSolver:  Solving for Uz, Initial residual = 1, Final residual = 4.0204e-07, No Iterations 9
DICPCG:  Solving for p, Initial residual = 1, Final residual = 0.000730765, No Iterations 42
DICPCG:  Solving for p, Initial residual = 0.00255882, Final residual = 2.53664e-06, No Iterations 13
time step continuity errors : sum local = 5.69405e-11, global = 1.88945e-14, cumulative = -2.88025e-12
DICPCG:  Solving for p, Initial residual = 0.00569923, Final residual = 4.64048e-06, No Iterations 36
DICPCG:  Solving for p, Initial residual = 0.000148845, Final residual = 1.13893e-07, No Iterations 36
time step continuity errors : sum local = 2.58379e-12, global = -2.71423e-14, cumulative = -2.90739e-12
DICPCG:  Solving for p, Initial residual = 0.00207399, Final residual = 1.42702e-06, No Iterations 36
DICPCG:  Solving for p, Initial residual = 4.39435e-05, Final residual = 4.39082e-08, No Iterations 24
time step continuity errors : sum local = 1.00296e-12, global = -1.67715e-13, cumulative = -3.07511e-12
DICPCG:  Solving for p, Initial residual = 0.000886228, Final residual = 5.3725e-07, No Iterations 36
DICPCG:  Solving for p, Initial residual = 2.05162e-05, Final residual = 7.82964e-09, No Iterations 26
time step continuity errors : sum local = 1.79389e-13, global = -3.75094e-14, cumulative = -3.11262e-12
ExecutionTime = 2.99 s  ClockTime = 4 s

(0) 15:39:08 [cplscheme::BaseCouplingScheme]:548 in measureConvergence: [0mrelative convergence measure: relative two-norm diff of data "Pressure" = 4.46e-02, limit = 1.00e-03, normalization = 2.00e+02, conv = false
(0) 15:39:08 [impl::SolverInterfaceImpl]:476 in advance: [0miteration: 29 of 100, time-window: 1, time: 0 of 20, time-window-size: 0.005, max-timestep-length: 0.005, ongoing: yes, time-window-complete: no, read-iteration-checkpoint 
--> FOAM Warning : 
    From void adapterInfo(std::string, std::string)
    in file Utilities.C at line 17
    [36mWarning in the preCICE adapter: [0m
The solver's timestep cannot be larger than the coupling timestep. Adjusting from 0.010000 to 0.005000

Courant Number mean: 0 max: 0
Time = 0.005

PIMPLE: iteration 1
smoothSolver:  Solving for Ux, Initial residual = 1, Final residual = 7.02005e-07, No Iterations 9
smoothSolver:  Solving for Uy, Initial residual = 1, Final residual = 7.03099e-07, No Iterations 9
smoothSolver:  Solving for Uz, Initial residual = 1, Final residual = 4.0204e-07, No Iterations 9
DICPCG:  Solving for p, Initial residual = 1, Final residual = 0.000730765, No Iterations 42
DICPCG:  Solving for p, Initial residual = 0.00255882, Final residual = 2.53664e-06, No Iterations 13
time step continuity errors : sum local = 5.89449e-11, global = 1.95596e-14, cumulative = -3.09306e-12
DICPCG:  Solving for p, Initial residual = 0.00569923, Final residual = 4.64048e-06, No Iterations 36
DICPCG:  Solving for p, Initial residual = 0.000148845, Final residual = 1.13893e-07, No Iterations 36
time step continuity errors : sum local = 2.67474e-12, global = -2.80977e-14, cumulative = -3.12116e-12
DICPCG:  Solving for p, Initial residual = 0.00207399, Final residual = 1.42702e-06, No Iterations 36
DICPCG:  Solving for p, Initial residual = 4.39435e-05, Final residual = 4.39082e-08, No Iterations 24
time step continuity errors : sum local = 1.03827e-12, global = -1.73619e-13, cumulative = -3.29477e-12
DICPCG:  Solving for p, Initial residual = 0.000886228, Final residual = 5.3725e-07, No Iterations 36
DICPCG:  Solving for p, Initial residual = 2.05162e-05, Final residual = 7.82964e-09, No Iterations 26
time step continuity errors : sum local = 1.85703e-13, global = -3.88297e-14, cumulative = -3.3336e-12
ExecutionTime = 3.1 s  ClockTime = 4 s

(0) 15:39:08 [cplscheme::BaseCouplingScheme]:548 in measureConvergence: [0mrelative convergence measure: relative two-norm diff of data "Pressure" = 1.04e-01, limit = 1.00e-03, normalization = 2.07e+02, conv = false
(0) 15:39:08 [impl::SolverInterfaceImpl]:476 in advance: [0miteration: 30 of 100, time-window: 1, time: 0 of 20, time-window-size: 0.005, max-timestep-length: 0.005, ongoing: yes, time-window-complete: no, read-iteration-checkpoint 
--> FOAM Warning : 
    From void adapterInfo(std::string, std::string)
    in file Utilities.C at line 17
    [36mWarning in the preCICE adapter: [0m
The solver's timestep cannot be larger than the coupling timestep. Adjusting from 0.010000 to 0.005000

Courant Number mean: 0 max: 0
Time = 0.005

PIMPLE: iteration 1
smoothSolver:  Solving for Ux, Initial residual = 1, Final residual = 7.02005e-07, No Iterations 9
smoothSolver:  Solving for Uy, Initial residual = 1, Final residual = 7.03099e-07, No Iterations 9
smoothSolver:  Solving for Uz, Initial residual = 1, Final residual = 4.0204e-07, No Iterations 9
DICPCG:  Solving for p, Initial residual = 1, Final residual = 0.000730765, No Iterations 42
DICPCG:  Solving for p, Initial residual = 0.00255882, Final residual = 2.53664e-06, No Iterations 13
time step continuity errors : sum local = 6.09258e-11, global = 2.0217e-14, cumulative = -3.31339e-12
DICPCG:  Solving for p, Initial residual = 0.00569923, Final residual = 4.64048e-06, No Iterations 36
DICPCG:  Solving for p, Initial residual = 0.000148845, Final residual = 1.13893e-07, No Iterations 36
time step continuity errors : sum local = 2.76463e-12, global = -2.9042e-14, cumulative = -3.34243e-12
DICPCG:  Solving for p, Initial residual = 0.00207399, Final residual = 1.42702e-06, No Iterations 36
DICPCG:  Solving for p, Initial residual = 4.39435e-05, Final residual = 4.39082e-08, No Iterations 24
time step continuity errors : sum local = 1.07316e-12, global = -1.79453e-13, cumulative = -3.52188e-12
DICPCG:  Solving for p, Initial residual = 0.000886228, Final residual = 5.3725e-07, No Iterations 36
DICPCG:  Solving for p, Initial residual = 2.05162e-05, Final residual = 7.82964e-09, No Iterations 26
time step continuity errors : sum local = 1.91944e-13, global = -4.01346e-14, cumulative = -3.56202e-12
ExecutionTime = 3.19 s  ClockTime = 4 s

(0) 15:39:08 [cplscheme::BaseCouplingScheme]:548 in measureConvergence: [0mrelative convergence measure: relative two-norm diff of data "Pressure" = 5.58e-02, limit = 1.00e-03, normalization = 2.14e+02, conv = false
(0) 15:39:08 [impl::SolverInterfaceImpl]:476 in advance: [0miteration: 31 of 100, time-window: 1, time: 0 of 20, time-window-size: 0.005, max-timestep-length: 0.005, ongoing: yes, time-window-complete: no, read-iteration-checkpoint 
--> FOAM Warning : 
    From void adapterInfo(std::string, std::string)
    in file Utilities.C at line 17
    [36mWarning in the preCICE adapter: [0m
The solver's timestep cannot be larger than the coupling timestep. Adjusting from 0.010000 to 0.005000

Courant Number mean: 0 max: 0
Time = 0.005

PIMPLE: iteration 1
smoothSolver:  Solving for Ux, Initial residual = 1, Final residual = 7.02005e-07, No Iterations 9
smoothSolver:  Solving for Uy, Initial residual = 1, Final residual = 7.03099e-07, No Iterations 9
smoothSolver:  Solving for Uz, Initial residual = 1, Final residual = 4.0204e-07, No Iterations 9
DICPCG:  Solving for p, Initial residual = 1, Final residual = 0.000730765, No Iterations 42
DICPCG:  Solving for p, Initial residual = 0.00255882, Final residual = 2.53664e-06, No Iterations 13
time step continuity errors : sum local = 6.29253e-11, global = 2.08805e-14, cumulative = -3.54114e-12
DICPCG:  Solving for p, Initial residual = 0.00569923, Final residual = 4.64048e-06, No Iterations 36
DICPCG:  Solving for p, Initial residual = 0.000148845, Final residual = 1.13893e-07, No Iterations 36
time step continuity errors : sum local = 2.85536e-12, global = -2.99951e-14, cumulative = -3.57113e-12
DICPCG:  Solving for p, Initial residual = 0.00207399, Final residual = 1.42702e-06, No Iterations 36
DICPCG:  Solving for p, Initial residual = 4.39435e-05, Final residual = 4.39082e-08, No Iterations 24
time step continuity errors : sum local = 1.10838e-12, global = -1.85343e-13, cumulative = -3.75647e-12
DICPCG:  Solving for p, Initial residual = 0.000886228, Final residual = 5.3725e-07, No Iterations 36
DICPCG:  Solving for p, Initial residual = 2.05162e-05, Final residual = 7.82964e-09, No Iterations 26
time step continuity errors : sum local = 1.98243e-13, global = -4.14518e-14, cumulative = -3.79793e-12
ExecutionTime = 3.32 s  ClockTime = 4 s

(0) 15:39:08 [cplscheme::BaseCouplingScheme]:548 in measureConvergence: [0mrelative convergence measure: relative two-norm diff of data "Pressure" = 4.30e-02, limit = 1.00e-03, normalization = 2.21e+02, conv = false
(0) 15:39:08 [impl::SolverInterfaceImpl]:476 in advance: [0miteration: 32 of 100, time-window: 1, time: 0 of 20, time-window-size: 0.005, max-timestep-length: 0.005, ongoing: yes, time-window-complete: no, read-iteration-checkpoint 
--> FOAM Warning : 
    From void adapterInfo(std::string, std::string)
    in file Utilities.C at line 17
    [36mWarning in the preCICE adapter: [0m
The solver's timestep cannot be larger than the coupling timestep. Adjusting from 0.010000 to 0.005000

Courant Number mean: 0 max: 0
Time = 0.005

PIMPLE: iteration 1
smoothSolver:  Solving for Ux, Initial residual = 1, Final residual = 7.02005e-07, No Iterations 9
smoothSolver:  Solving for Uy, Initial residual = 1, Final residual = 7.03099e-07, No Iterations 9
smoothSolver:  Solving for Uz, Initial residual = 1, Final residual = 4.0204e-07, No Iterations 9
DICPCG:  Solving for p, Initial residual = 1, Final residual = 0.000730765, No Iterations 42
DICPCG:  Solving for p, Initial residual = 0.00255882, Final residual = 2.53664e-06, No Iterations 13
time step continuity errors : sum local = 6.49223e-11, global = 2.15431e-14, cumulative = -3.77638e-12
DICPCG:  Solving for p, Initial residual = 0.00569923, Final residual = 4.64048e-06, No Iterations 36
DICPCG:  Solving for p, Initial residual = 0.000148845, Final residual = 1.13893e-07, No Iterations 36
time step continuity errors : sum local = 2.94598e-12, global = -3.0947e-14, cumulative = -3.80733e-12
DICPCG:  Solving for p, Initial residual = 0.00207399, Final residual = 1.42702e-06, No Iterations 36
DICPCG:  Solving for p, Initial residual = 4.39435e-05, Final residual = 4.39082e-08, No Iterations 24
time step continuity errors : sum local = 1.14356e-12, global = -1.91225e-13, cumulative = -3.99855e-12
DICPCG:  Solving for p, Initial residual = 0.000886228, Final residual = 5.3725e-07, No Iterations 36
DICPCG:  Solving for p, Initial residual = 2.05162e-05, Final residual = 7.82964e-09, No Iterations 26
time step continuity errors : sum local = 2.04535e-13, global = -4.27673e-14, cumulative = -4.04132e-12
ExecutionTime = 3.41 s  ClockTime = 4 s

(0) 15:39:08 [cplscheme::BaseCouplingScheme]:548 in measureConvergence: [0mrelative convergence measure: relative two-norm diff of data "Pressure" = 8.92e-02, limit = 1.00e-03, normalization = 2.28e+02, conv = false
(0) 15:39:08 [impl::SolverInterfaceImpl]:476 in advance: [0miteration: 33 of 100, time-window: 1, time: 0 of 20, time-window-size: 0.005, max-timestep-length: 0.005, ongoing: yes, time-window-complete: no, read-iteration-checkpoint 
--> FOAM Warning : 
    From void adapterInfo(std::string, std::string)
    in file Utilities.C at line 17
    [36mWarning in the preCICE adapter: [0m
The solver's timestep cannot be larger than the coupling timestep. Adjusting from 0.010000 to 0.005000

Courant Number mean: 0 max: 0
Time = 0.005

PIMPLE: iteration 1
smoothSolver:  Solving for Ux, Initial residual = 1, Final residual = 7.02005e-07, No Iterations 9
smoothSolver:  Solving for Uy, Initial residual = 1, Final residual = 7.03099e-07, No Iterations 9
smoothSolver:  Solving for Uz, Initial residual = 1, Final residual = 4.0204e-07, No Iterations 9
DICPCG:  Solving for p, Initial residual = 1, Final residual = 0.000730765, No Iterations 42
DICPCG:  Solving for p, Initial residual = 0.00255882, Final residual = 2.53664e-06, No Iterations 13
time step continuity errors : sum local = 6.68957e-11, global = 2.21979e-14, cumulative = -4.01912e-12
DICPCG:  Solving for p, Initial residual = 0.00569923, Final residual = 4.64048e-06, No Iterations 36
DICPCG:  Solving for p, Initial residual = 0.000148845, Final residual = 1.13893e-07, No Iterations 36
time step continuity errors : sum local = 3.03553e-12, global = -3.18877e-14, cumulative = -4.05101e-12
[...]
DICPCG:  Solving for p, Initial residual = 0.0102771, Final residual = 9.15173e-06, No Iterations 41
DICPCG:  Solving for p, Initial residual = 0.00119458, Final residual = 8.69599e-07, No Iterations 16
time step continuity errors : sum local = 1.53945e-11, global = -2.47814e-14, cumulative = 1.53905e-10
DICPCG:  Solving for p, Initial residual = 0.00466177, Final residual = 3.21378e-06, No Iterations 36
DICPCG:  Solving for p, Initial residual = 8.88783e-05, Final residual = 6.49592e-08, No Iterations 36
time step continuity errors : sum local = 1.14191e-12, global = 1.21862e-14, cumulative = 1.53917e-10
DICPCG:  Solving for p, Initial residual = 0.00203541, Final residual = 1.8607e-06, No Iterations 35
DICPCG:  Solving for p, Initial residual = 2.93512e-05, Final residual = 2.43778e-08, No Iterations 26
time step continuity errors : sum local = 4.26902e-13, global = 1.75544e-13, cumulative = 1.54092e-10
DICPCG:  Solving for p, Initial residual = 0.000931809, Final residual = 7.18822e-07, No Iterations 35
DICPCG:  Solving for p, Initial residual = 1.46554e-05, Final residual = 9.34938e-09, No Iterations 27
time step continuity errors : sum local = 1.63431e-13, global = 7.37848e-14, cumulative = 1.54166e-10
ExecutionTime = 42.21 s  ClockTime = 49 s

(0) 15:39:53 [cplscheme::BaseCouplingScheme]:548 in measureConvergence: [0mrelative convergence measure: relative two-norm diff of data "Pressure" = 6.88e-02, limit = 1.00e-03, normalization = 1.33e+02, conv = false
(0) 15:39:53 [impl::SolverInterfaceImpl]:476 in advance: [0miteration: 12 of 100, time-window: 6, time: 0.025 of 20, time-window-size: 0.005, max-timestep-length: 0.005, ongoing: yes, time-window-complete: no, read-iteration-checkpoint 
--> FOAM Warning : 
    From void adapterInfo(std::string, std::string)
    in file Utilities.C at line 17
    [36mWarning in the preCICE adapter: [0m
The solver's timestep cannot be larger than the coupling timestep. Adjusting from 0.010000 to 0.005000

Courant Number mean: 0.000141757 max: 0.000411978
Time = 0.03

PIMPLE: iteration 1
smoothSolver:  Solving for Ux, Initial residual = 0.0399572, Final residual = 2.71506e-07, No Iterations 8
smoothSolver:  Solving for Uy, Initial residual = 0.0399572, Final residual = 2.73342e-07, No Iterations 8
smoothSolver:  Solving for Uz, Initial residual = 0.0961836, Final residual = 3.92213e-07, No Iterations 9
DICPCG:  Solving for p, Initial residual = 0.00986695, Final residual = 8.61701e-06, No Iterations 41
DICPCG:  Solving for p, Initial residual = 0.00109492, Final residual = 8.18207e-07, No Iterations 16
time step continuity errors : sum local = 1.48725e-11, global = -2.26587e-14, cumulative = 1.54143e-10
DICPCG:  Solving for p, Initial residual = 0.00440858, Final residual = 3.00258e-06, No Iterations 36
DICPCG:  Solving for p, Initial residual = 8.26451e-05, Final residual = 6.00921e-08, No Iterations 36
time step continuity errors : sum local = 1.08518e-12, global = 1.15009e-14, cumulative = 1.54155e-10
DICPCG:  Solving for p, Initial residual = 0.00192574, Final residual = 1.72413e-06, No Iterations 35
DICPCG:  Solving for p, Initial residual = 2.73853e-05, Final residual = 2.2977e-08, No Iterations 26
time step continuity errors : sum local = 4.1346e-13, global = 1.70829e-13, cumulative = 1.54326e-10
DICPCG:  Solving for p, Initial residual = 0.00088288, Final residual = 6.6384e-07, No Iterations 35
DICPCG:  Solving for p, Initial residual = 1.37235e-05, Final residual = 9.64492e-09, No Iterations 26
time step continuity errors : sum local = 1.73263e-13, global = 6.87179e-14, cumulative = 1.54395e-10
ExecutionTime = 42.31 s  ClockTime = 49 s

(0) 15:39:53 [cplscheme::BaseCouplingScheme]:548 in measureConvergence: [0mrelative convergence measure: relative two-norm diff of data "Pressure" = 8.51e-02, limit = 1.00e-03, normalization = 1.38e+02, conv = false
(0) 15:39:53 [impl::SolverInterfaceImpl]:476 in advance: [0miteration: 13 of 100, time-window: 6, time: 0.025 of 20, time-window-size: 0.005, max-timestep-length: 0.005, ongoing: yes, time-window-complete: no, read-iteration-checkpoint 
--> FOAM Warning : 
    From void adapterInfo(std::string, std::string)
    in file Utilities.C at line 17
    [36mWarning in the preCICE adapter: [0m
The solver's timestep cannot be larger than the coupling timestep. Adjusting from 0.010000 to 0.005000

Courant Number mean: 0.000141757 max: 0.000411978
Time = 0.03

PIMPLE: iteration 1
smoothSolver:  Solving for Ux, Initial residual = 0.0399437, Final residual = 2.71471e-07, No Iterations 8
smoothSolver:  Solving for Uy, Initial residual = 0.0399437, Final residual = 2.73308e-07, No Iterations 8
smoothSolver:  Solving for Uz, Initial residual = 0.0962007, Final residual = 3.92219e-07, No Iterations 9
DICPCG:  Solving for p, Initial residual = 0.0094643, Final residual = 8.10092e-06, No Iterations 41
DICPCG:  Solving for p, Initial residual = 0.00100199, Final residual = 7.70519e-07, No Iterations 16
time step continuity errors : sum local = 1.43645e-11, global = -2.05685e-14, cumulative = 1.54374e-10
DICPCG:  Solving for p, Initial residual = 0.00417273, Final residual = 2.80516e-06, No Iterations 36
DICPCG:  Solving for p, Initial residual = 7.68597e-05, Final residual = 5.55617e-08, No Iterations 36
time step continuity errors : sum local = 1.02955e-12, global = 1.08267e-14, cumulative = 1.54385e-10
DICPCG:  Solving for p, Initial residual = 0.00182358, Final residual = 1.59641e-06, No Iterations 35
DICPCG:  Solving for p, Initial residual = 2.55554e-05, Final residual = 2.16732e-08, No Iterations 26
time step continuity errors : sum local = 4.00279e-13, global = 1.662e-13, cumulative = 1.54551e-10
DICPCG:  Solving for p, Initial residual = 0.000837318, Final residual = 6.12221e-07, No Iterations 35
DICPCG:  Solving for p, Initial residual = 1.2862e-05, Final residual = 9.20484e-09, No Iterations 26
time step continuity errors : sum local = 1.69735e-13, global = 6.79631e-14, cumulative = 1.54619e-10
ExecutionTime = 42.41 s  ClockTime = 49 s

(0) 15:39:53 [cplscheme::BaseCouplingScheme]:548 in measureConvergence: [0mrelative convergence measure: relative two-norm diff of data "Pressure" = 1.71e-01, limit = 1.00e-03, normalization = 1.42e+02, conv = false
(0) 15:39:53 [impl::SolverInterfaceImpl]:476 in advance: [0miteration: 14 of 100, time-window: 6, time: 0.025 of 20, time-window-size: 0.005, max-timestep-length: 0.005, ongoing: yes, time-window-complete: no, read-iteration-checkpoint 
--> FOAM Warning : 
    From void adapterInfo(std::string, std::string)
    in file Utilities.C at line 17
    [36mWarning in the preCICE adapter: [0m
The solver's timestep cannot be larger than the coupling timestep. Adjusting from 0.010000 to 0.005000

Courant Number mean: 0.000141757 max: 0.000411978
Time = 0.03

PIMPLE: iteration 1
smoothSolver:  Solving for Ux, Initial residual = 0.0399299, Final residual = 2.71436e-07, No Iterations 8
smoothSolver:  Solving for Uy, Initial residual = 0.0399299, Final residual = 2.73273e-07, No Iterations 8
smoothSolver:  Solving for Uz, Initial residual = 0.0962181, Final residual = 3.92226e-07, No Iterations 9
DICPCG:  Solving for p, Initial residual = 0.00905519, Final residual = 7.58447e-06, No Iterations 41
DICPCG:  Solving for p, Initial residual = 0.000912197, Final residual = 7.24674e-07, No Iterations 16
time step continuity errors : sum local = 1.38533e-11, global = -1.84194e-14, cumulative = 1.54601e-10
DICPCG:  Solving for p, Initial residual = 0.00394507, Final residual = 2.61321e-06, No Iterations 36
DICPCG:  Solving for p, Initial residual = 7.12852e-05, Final residual = 5.11919e-08, No Iterations 36
time step continuity errors : sum local = 9.73085e-13, global = 1.01399e-14, cumulative = 1.54611e-10
DICPCG:  Solving for p, Initial residual = 0.00172496, Final residual = 1.47236e-06, No Iterations 35
DICPCG:  Solving for p, Initial residual = 2.37941e-05, Final residual = 2.04162e-08, No Iterations 26
time step continuity errors : sum local = 3.86904e-13, global = 1.61498e-13, cumulative = 1.54772e-10
DICPCG:  Solving for p, Initial residual = 0.000793368, Final residual = 5.61979e-07, No Iterations 35
DICPCG:  Solving for p, Initial residual = 1.20414e-05, Final residual = 8.78142e-09, No Iterations 26
time step continuity errors : sum local = 1.66173e-13, global = 6.71987e-14, cumulative = 1.54839e-10
ExecutionTime = 42.5 s  ClockTime = 49 s

(0) 15:39:53 [cplscheme::BaseCouplingScheme]:548 in measureConvergence: [0mrelative convergence measure: relative two-norm diff of data "Pressure" = 8.59e-02, limit = 1.00e-03, normalization = 1.46e+02, conv = false
(0) 15:39:53 [impl::SolverInterfaceImpl]:476 in advance: [0miteration: 15 of 100, time-window: 6, time: 0.025 of 20, time-window-size: 0.005, max-timestep-length: 0.005, ongoing: yes, time-window-complete: no, read-iteration-checkpoint 
--> FOAM Warning : 
    From void adapterInfo(std::string, std::string)
    in file Utilities.C at line 17
    [36mWarning in the preCICE adapter: [0m
The solver's timestep cannot be larger than the coupling timestep. Adjusting from 0.010000 to 0.005000

Courant Number mean: 0.000141757 max: 0.000411978
Time = 0.03

PIMPLE: iteration 1
smoothSolver:  Solving for Ux, Initial residual = 0.0399161, Final residual = 2.71401e-07, No Iterations 8
smoothSolver:  Solving for Uy, Initial residual = 0.0399161, Final residual = 2.73238e-07, No Iterations 8
smoothSolver:  Solving for Uz, Initial residual = 0.0962354, Final residual = 3.92233e-07, No Iterations 9
DICPCG:  Solving for p, Initial residual = 0.00864684, Final residual = 8.58805e-06, No Iterations 40
DICPCG:  Solving for p, Initial residual = 0.000827648, Final residual = 6.63636e-07, No Iterations 16
time step continuity errors : sum local = 1.30008e-11, global = -3.21176e-14, cumulative = 1.54807e-10
DICPCG:  Solving for p, Initial residual = 0.0037291, Final residual = 2.43011e-06, No Iterations 36
DICPCG:  Solving for p, Initial residual = 6.60143e-05, Final residual = 4.7401e-08, No Iterations 36
time step continuity errors : sum local = 9.23688e-13, global = 9.49211e-15, cumulative = 1.54817e-10
DICPCG:  Solving for p, Initial residual = 0.00163136, Final residual = 1.35396e-06, No Iterations 35
DICPCG:  Solving for p, Initial residual = 2.21361e-05, Final residual = 1.92383e-08, No Iterations 26
time step continuity errors : sum local = 3.73841e-13, global = 1.56907e-13, cumulative = 1.54974e-10
DICPCG:  Solving for p, Initial residual = 0.000751697, Final residual = 5.13856e-07, No Iterations 35
DICPCG:  Solving for p, Initial residual = 1.12673e-05, Final residual = 8.38645e-09, No Iterations 26
time step continuity errors : sum local = 1.62748e-13, global = 6.64738e-14, cumulative = 1.5504e-10
ExecutionTime = 42.6 s  ClockTime = 49 s

(0) 15:39:53 [cplscheme::BaseCouplingScheme]:548 in measureConvergence: [0mrelative convergence measure: relative two-norm diff of data "Pressure" = 2.01e-03, limit = 1.00e-03, normalization = 1.50e+02, conv = false
(0) 15:39:53 [impl::SolverInterfaceImpl]:476 in advance: [0miteration: 16 of 100, time-window: 6, time: 0.025 of 20, time-window-size: 0.005, max-timestep-length: 0.005, ongoing: yes, time-window-complete: no, read-iteration-checkpoint 
--> FOAM Warning : 
    From void adapterInfo(std::string, std::string)
    in file Utilities.C at line 17
    [36mWarning in the preCICE adapter: [0m
The solver's timestep cannot be larger than the coupling timestep. Adjusting from 0.010000 to 0.005000

Courant Number mean: 0.000141757 max: 0.000411978
Time = 0.03

PIMPLE: iteration 1
smoothSolver:  Solving for Ux, Initial residual = 0.0399025, Final residual = 2.71367e-07, No Iterations 8
smoothSolver:  Solving for Uy, Initial residual = 0.0399025, Final residual = 2.73204e-07, No Iterations 8
smoothSolver:  Solving for Uz, Initial residual = 0.0962525, Final residual = 3.92239e-07, No Iterations 9
DICPCG:  Solving for p, Initial residual = 0.00824614, Final residual = 7.95987e-06, No Iterations 40
DICPCG:  Solving for p, Initial residual = 0.000747959, Final residual = 6.24019e-07, No Iterations 16
time step continuity errors : sum local = 1.25148e-11, global = -2.87394e-14, cumulative = 1.55011e-10
DICPCG:  Solving for p, Initial residual = 0.00352769, Final residual = 2.25769e-06, No Iterations 36
DICPCG:  Solving for p, Initial residual = 6.10763e-05, Final residual = 4.34966e-08, No Iterations 36
time step continuity errors : sum local = 8.68018e-13, global = 8.81341e-15, cumulative = 1.5502e-10
DICPCG:  Solving for p, Initial residual = 0.00154385, Final residual = 1.24265e-06, No Iterations 35
DICPCG:  Solving for p, Initial residual = 2.05989e-05, Final residual = 1.81268e-08, No Iterations 26
time step continuity errors : sum local = 3.60808e-13, global = 1.52291e-13, cumulative = 1.55172e-10
DICPCG:  Solving for p, Initial residual = 0.000712782, Final residual = 4.68094e-07, No Iterations 35
DICPCG:  Solving for p, Initial residual = 1.05453e-05, Final residual = 8.01475e-09, No Iterations 26
time step continuity errors : sum local = 1.59334e-13, global = 6.57287e-14, cumulative = 1.55238e-10
ExecutionTime = 42.7 s  ClockTime = 49 s

(0) 15:39:54 [cplscheme::BaseCouplingScheme]:548 in measureConvergence: [0mrelative convergence measure: relative two-norm diff of data "Pressure" = 2.81e-02, limit = 1.00e-03, normalization = 1.55e+02, conv = false
(0) 15:39:54 [impl::SolverInterfaceImpl]:476 in advance: [0miteration: 17 of 100, time-window: 6, time: 0.025 of 20, time-window-size: 0.005, max-timestep-length: 0.005, ongoing: yes, time-window-complete: no, read-iteration-checkpoint 
--> FOAM Warning : 
    From void adapterInfo(std::string, std::string)
    in file Utilities.C at line 17
    [36mWarning in the preCICE adapter: [0m
The solver's timestep cannot be larger than the coupling timestep. Adjusting from 0.010000 to 0.005000

Courant Number mean: 0.000141757 max: 0.000411978
Time = 0.03

PIMPLE: iteration 1
smoothSolver:  Solving for Ux, Initial residual = 0.0398888, Final residual = 2.71332e-07, No Iterations 8
smoothSolver:  Solving for Uy, Initial residual = 0.0398888, Final residual = 2.73169e-07, No Iterations 8
smoothSolver:  Solving for Uz, Initial residual = 0.0962698, Final residual = 3.92246e-07, No Iterations 9
DICPCG:  Solving for p, Initial residual = 0.00783905, Final residual = 7.3299e-06, No Iterations 40
DICPCG:  Solving for p, Initial residual = 0.000670976, Final residual = 5.86165e-07, No Iterations 16
time step continuity errors : sum local = 1.20329e-11, global = -2.52656e-14, cumulative = 1.55213e-10
DICPCG:  Solving for p, Initial residual = 0.00333266, Final residual = 2.08857e-06, No Iterations 36
DICPCG:  Solving for p, Initial residual = 5.63101e-05, Final residual = 3.97194e-08, No Iterations 36
time step continuity errors : sum local = 8.11597e-13, global = 8.12129e-15, cumulative = 1.55221e-10
DICPCG:  Solving for p, Initial residual = 0.00145911, Final residual = 1.13399e-06, No Iterations 35
DICPCG:  Solving for p, Initial residual = 1.912e-05, Final residual = 1.70526e-08, No Iterations 26
time step continuity errors : sum local = 3.47613e-13, global = 1.47603e-13, cumulative = 1.55369e-10
DICPCG:  Solving for p, Initial residual = 0.000675138, Final residual = 6.53254e-07, No Iterations 34
DICPCG:  Solving for p, Initial residual = 9.96717e-06, Final residual = 9.18227e-09, No Iterations 25
time step continuity errors : sum local = 1.86966e-13, global = 6.10071e-14, cumulative = 1.5543e-10
ExecutionTime = 42.79 s  ClockTime = 50 s

(0) 15:39:54 [cplscheme::BaseCouplingScheme]:548 in measureConvergence: [0mrelative convergence measure: relative two-norm diff of data "Pressure" = 5.21e-02, limit = 1.00e-03, normalization = 1.59e+02, conv = false
(0) 15:39:54 [impl::SolverInterfaceImpl]:476 in advance: [0miteration: 18 of 100, time-window: 6, time: 0.025 of 20, time-window-size: 0.005, max-timestep-length: 0.005, ongoing: yes, time-window-complete: no, read-iteration-checkpoint 
--> FOAM Warning : 
    From void adapterInfo(std::string, std::string)
    in file Utilities.C at line 17
    [36mWarning in the preCICE adapter: [0m
The solver's timestep cannot be larger than the coupling timestep. Adjusting from 0.010000 to 0.005000

Courant Number mean: 0.000141757 max: 0.000411978
Time = 0.03

PIMPLE: iteration 1
smoothSolver:  Solving for Ux, Initial residual = 0.0398753, Final residual = 2.71298e-07, No Iterations 8
smoothSolver:  Solving for Uy, Initial residual = 0.0398753, Final residual = 2.73135e-07, No Iterations 8
smoothSolver:  Solving for Uz, Initial residual = 0.0962868, Final residual = 3.92253e-07, No Iterations 9
DICPCG:  Solving for p, Initial residual = 0.00743938, Final residual = 6.71875e-06, No Iterations 40
DICPCG:  Solving for p, Initial residual = 0.00059893, Final residual = 5.51243e-07, No Iterations 16
time step continuity errors : sum local = 1.1573e-11, global = -2.17971e-14, cumulative = 1.55408e-10
DICPCG:  Solving for p, Initial residual = 0.00315008, Final residual = 1.92757e-06, No Iterations 36
DICPCG:  Solving for p, Initial residual = 5.18549e-05, Final residual = 3.61887e-08, No Iterations 36
time step continuity errors : sum local = 7.56461e-13, global = 7.43883e-15, cumulative = 1.55415e-10
DICPCG:  Solving for p, Initial residual = 0.00137969, Final residual = 1.031e-06, No Iterations 35
DICPCG:  Solving for p, Initial residual = 1.77435e-05, Final residual = 1.60511e-08, No Iterations 26
time step continuity errors : sum local = 3.34765e-13, global = 1.43003e-13, cumulative = 1.55558e-10
DICPCG:  Solving for p, Initial residual = 0.0006399, Final residual = 5.82967e-07, No Iterations 34
DICPCG:  Solving for p, Initial residual = 9.30457e-06, Final residual = 8.76688e-09, No Iterations 25
time step continuity errors : sum local = 1.82654e-13, global = 6.03714e-14, cumulative = 1.55619e-10
ExecutionTime = 42.9 s  ClockTime = 50 s

(0) 15:39:54 [cplscheme::BaseCouplingScheme]:548 in measureConvergence: [0mrelative convergence measure: relative two-norm diff of data "Pressure" = 8.15e-02, limit = 1.00e-03, normalization = 1.63e+02, conv = false
(0) 15:39:54 [impl::SolverInterfaceImpl]:476 in advance: [0miteration: 19 of 100, time-window: 6, time: 0.025 of 20, time-window-size: 0.005, max-timestep-length: 0.005, ongoing: yes, time-window-complete: no, read-iteration-checkpoint 
--> FOAM Warning : 
    From void adapterInfo(std::string, std::string)
    in file Utilities.C at line 17
    [36mWarning in the preCICE adapter: [0m
The solver's timestep cannot be larger than the coupling timestep. Adjusting from 0.010000 to 0.005000

Courant Number mean: 0.000141757 max: 0.000411978
Time = 0.03

PIMPLE: iteration 1
smoothSolver:  Solving for Ux, Initial residual = 0.0398616, Final residual = 2.71263e-07, No Iterations 8
smoothSolver:  Solving for Uy, Initial residual = 0.0398616, Final residual = 2.731e-07, No Iterations 8
smoothSolver:  Solving for Uz, Initial residual = 0.096304, Final residual = 3.9226e-07, No Iterations 9
DICPCG:  Solving for p, Initial residual = 0.00703331, Final residual = 6.11579e-06, No Iterations 40
DICPCG:  Solving for p, Initial residual = 0.000528931, Final residual = 5.18127e-07, No Iterations 16
time step continuity errors : sum local = 1.11237e-11, global = -1.81786e-14, cumulative = 1.55601e-10
DICPCG:  Solving for p, Initial residual = 0.00297301, Final residual = 2.91262e-06, No Iterations 35
DICPCG:  Solving for p, Initial residual = 4.82404e-05, Final residual = 3.28096e-08, No Iterations 36
time step continuity errors : sum local = 7.01495e-13, global = 5.99664e-15, cumulative = 1.55607e-10
DICPCG:  Solving for p, Initial residual = 0.0013026, Final residual = 9.29569e-07, No Iterations 35
DICPCG:  Solving for p, Initial residual = 1.64082e-05, Final residual = 1.5042e-08, No Iterations 26
time step continuity errors : sum local = 3.20947e-13, global = 1.37933e-13, cumulative = 1.55744e-10
