*INCLUDE, INPUT=all.msh
*INCLUDE, INPUT=fix1.nam
*INCLUDE, INPUT=interface.nam

*MATERIAL, Name=EL
** Material Properties
*ELASTIC
 400000, 0.3
*DENSITY
 3000
*SPECIFIC HEAT
446
*CONDUCTIVITY
50.,0


*SOLID SECTION, Elset=Eall, Material=EL

*INITIAL CONDITIONs, TYPE=TEMPERATURE
Nall, 200.

*STEP, NLGEOM, INC=1000000
*HEAT TRANSFER, DIRECT, STEADY STATE
1.E-2, 10.0

*BOUNDARY
Ninterface, 11, 11, 400.

*DFLUX
*INCLUDE, INPUT=interface.dfl

*FILM
*INCLUDE, INPUT=interface.flm
 
*NODE FILE
NT


*END STEP
