SUMMARY OF JOB INFORMATION
  STEP      INC     ATT  ITRS     TOT TIME     STEP TIME      INC TIME
     1          1     1     2  0.100000E+01  0.100000E+01  0.100000E+01
     1          2     1     2  0.100000E+01  0.100000E+01  0.100000E+01
     1          3     1     2  0.100000E+01  0.100000E+01  0.100000E+01
     1          4     1     2  0.100000E+01  0.100000E+01  0.100000E+01
     1          5     1     2  0.100000E+01  0.100000E+01  0.100000E+01
     1          6     1     2  0.100000E+01  0.100000E+01  0.100000E+01
     1          7     1     2  0.100000E+01  0.100000E+01  0.100000E+01
     1          8     1     2  0.100000E+01  0.100000E+01  0.100000E+01
     1          9     1     2  0.100000E+01  0.100000E+01  0.100000E+01
     1         10     1     2  0.100000E+01  0.100000E+01  0.100000E+01
     1         11     1     2  0.100000E+01  0.100000E+01  0.100000E+01
     1         12     1     2  0.100000E+01  0.100000E+01  0.100000E+01
     1         13     1     2  0.100000E+01  0.100000E+01  0.100000E+01
     1         14     1     2  0.100000E+01  0.100000E+01  0.100000E+01
     1         15     1     2  0.100000E+01  0.100000E+01  0.100000E+01
     1         16     1     2  0.100000E+01  0.100000E+01  0.100000E+01
     1         17     1     2  0.100000E+01  0.100000E+01  0.100000E+01
     1         18     1     2  0.100000E+01  0.100000E+01  0.100000E+01
     1         19     1     2  0.100000E+01  0.100000E+01  0.100000E+01
     1         20     1     2  0.100000E+01  0.100000E+01  0.100000E+01
     1         21     1     2  0.100000E+01  0.100000E+01  0.100000E+01
     1         22     1     2  0.100000E+01  0.100000E+01  0.100000E+01
     1         23     1     2  0.100000E+01  0.100000E+01  0.100000E+01
     1         24     1     2  0.100000E+01  0.100000E+01  0.100000E+01
     1         25     1     2  0.100000E+01  0.100000E+01  0.100000E+01
     1         26     1     2  0.100000E+01  0.100000E+01  0.100000E+01
     1         27     1     2  0.100000E+01  0.100000E+01  0.100000E+01
     1         28     1     2  0.100000E+01  0.100000E+01  0.100000E+01
     1         29     1     2  0.100000E+01  0.100000E+01  0.100000E+01
     1         30     1     2  0.100000E+01  0.100000E+01  0.100000E+01
     1         31     1     2  0.100000E+01  0.100000E+01  0.100000E+01
     1         32     1     2  0.100000E+01  0.100000E+01  0.100000E+01
     1         33     1     2  0.100000E+01  0.100000E+01  0.100000E+01
     1         34     1     2  0.100000E+01  0.100000E+01  0.100000E+01
     1         35     1     2  0.100000E+01  0.100000E+01  0.100000E+01
     1         36     1     2  0.100000E+01  0.100000E+01  0.100000E+01
     1         37     1     2  0.100000E+01  0.100000E+01  0.100000E+01
     1         38     1     2  0.100000E+01  0.100000E+01  0.100000E+01
     1         39     1     2  0.100000E+01  0.100000E+01  0.100000E+01
     1         40     1     2  0.100000E+01  0.100000E+01  0.100000E+01
     1         41     1     2  0.100000E+01  0.100000E+01  0.100000E+01
     1         42     1     2  0.100000E+01  0.100000E+01  0.100000E+01
     1         43     1     2  0.100000E+01  0.100000E+01  0.100000E+01
     1         44     1     2  0.100000E+01  0.100000E+01  0.100000E+01
     1         45     1     2  0.100000E+01  0.100000E+01  0.100000E+01
     1         46     1     2  0.100000E+01  0.100000E+01  0.100000E+01
     1         47     1     2  0.100000E+01  0.100000E+01  0.100000E+01
     1         48     1     2  0.100000E+01  0.100000E+01  0.100000E+01
     1         49     1     2  0.100000E+01  0.100000E+01  0.100000E+01
     1         50     1     2  0.100000E+01  0.100000E+01  0.100000E+01
     1         51     1     2  0.100000E+01  0.100000E+01  0.100000E+01
     1         52     1     2  0.100000E+01  0.100000E+01  0.100000E+01
     1         53     1     2  0.100000E+01  0.100000E+01  0.100000E+01
     1         54     1     2  0.100000E+01  0.100000E+01  0.100000E+01
     1         55     1     2  0.100000E+01  0.100000E+01  0.100000E+01
     1         56     1     2  0.100000E+01  0.100000E+01  0.100000E+01
     1         57     1     2  0.100000E+01  0.100000E+01  0.100000E+01
     1         58     1     2  0.100000E+01  0.100000E+01  0.100000E+01
     1         59     1     2  0.100000E+01  0.100000E+01  0.100000E+01
     1         60     1     2  0.100000E+01  0.100000E+01  0.100000E+01
     1         61     1     2  0.100000E+01  0.100000E+01  0.100000E+01
     1         62     1     2  0.100000E+01  0.100000E+01  0.100000E+01
     1         63     1     2  0.100000E+01  0.100000E+01  0.100000E+01
     1         64     1     2  0.100000E+01  0.100000E+01  0.100000E+01
     1         65     1     2  0.100000E+01  0.100000E+01  0.100000E+01
     1         66     1     2  0.100000E+01  0.100000E+01  0.100000E+01
     1         67     1     2  0.100000E+01  0.100000E+01  0.100000E+01
     1         68     1     2  0.100000E+01  0.100000E+01  0.100000E+01
     1         69     1     2  0.100000E+01  0.100000E+01  0.100000E+01
     1         70     1     2  0.100000E+01  0.100000E+01  0.100000E+01
     1         71     1     2  0.100000E+01  0.100000E+01  0.100000E+01
     1         72     1     2  0.100000E+01  0.100000E+01  0.100000E+01
     1         73     1     2  0.100000E+01  0.100000E+01  0.100000E+01
     1         74     1     2  0.100000E+01  0.100000E+01  0.100000E+01
     1         75     1     2  0.100000E+01  0.100000E+01  0.100000E+01
     1         76     1     2  0.100000E+01  0.100000E+01  0.100000E+01
     1         77     1     2  0.100000E+01  0.100000E+01  0.100000E+01
     1         78     1     2  0.100000E+01  0.100000E+01  0.100000E+01
     1         79     1     2  0.100000E+01  0.100000E+01  0.100000E+01
     1         80     1     2  0.100000E+01  0.100000E+01  0.100000E+01
     1         81     1     2  0.100000E+01  0.100000E+01  0.100000E+01
     1         82     1     2  0.100000E+01  0.100000E+01  0.100000E+01
     1         83     1     2  0.100000E+01  0.100000E+01  0.100000E+01
     1         84     1     2  0.100000E+01  0.100000E+01  0.100000E+01
     1         85     1     2  0.100000E+01  0.100000E+01  0.100000E+01
     1         86     1     2  0.100000E+01  0.100000E+01  0.100000E+01
     1         87     1     2  0.100000E+01  0.100000E+01  0.100000E+01
     1         88     1     2  0.100000E+01  0.100000E+01  0.100000E+01
     1         89     1     2  0.100000E+01  0.100000E+01  0.100000E+01
     1         90     1     2  0.100000E+01  0.100000E+01  0.100000E+01
     1         91     1     2  0.100000E+01  0.100000E+01  0.100000E+01
     1         92     1     2  0.100000E+01  0.100000E+01  0.100000E+01
     1         93     1     2  0.100000E+01  0.100000E+01  0.100000E+01
     1         94     1     2  0.100000E+01  0.100000E+01  0.100000E+01
     1         95     1     2  0.100000E+01  0.100000E+01  0.100000E+01
     1         96     1     2  0.100000E+01  0.100000E+01  0.100000E+01
     1         97     1     2  0.100000E+01  0.100000E+01  0.100000E+01
     1         98     1     1  0.100000E+01  0.100000E+01  0.100000E+01
     1         99     1     2  0.100000E+01  0.100000E+01  0.100000E+01
     1        100     1     2  0.100000E+01  0.100000E+01  0.100000E+01
     1        101     1     2  0.100000E+01  0.100000E+01  0.100000E+01
     1        102     1     2  0.100000E+01  0.100000E+01  0.100000E+01
