*INCLUDE, INPUT=all.msh
*INCLUDE, INPUT=fix1.nam
*INCLUDE, INPUT=interface.nam
*INCLUDE, INPUT=sinterface.sur


*MATERIAL, Name=EL
*DENSITY
3000
*SPECIFIC HEAT
446
*CONDUCTIVITY
50


*SOLID SECTION, Elset=Eall, Material=EL

*INITIAL CONDITIONs, TYPE=TEMPERATURE
Nall,400

*STEP, INC=1000000
*HEAT TRANSFER, DIRECT, STEADY STATE
1e-2, 10

*BOUNDARY
Nfix1, 11, 11, 400

*DFLUX
*INCLUDE, INPUT=sinterface.dfl

*FILM
*INCLUDE, INPUT=sinterface.flm
 
*NODE FILE
NT


*END STEP
