<?xml version="1.0" encoding="ISO-8859-1"?>
<febio_spec version="4.0">
	<Module type="solid"/>
	<Code>
		<callback name="precice_callback"/>
	</Code>
	<Control>
		<analysis>DYNAMIC</analysis>
		<time_steps>300</time_steps>
		<step_size>0.1</step_size>
		<plot_zero_state>0</plot_zero_state>
		<plot_range>0,-1</plot_range>
		<plot_level>PLOT_MAJOR_ITRS</plot_level>
		<output_level>OUTPUT_MAJOR_ITRS</output_level>
		<plot_stride>1</plot_stride>
		<adaptor_re_solve>1</adaptor_re_solve>
		<time_stepper type="default">
			<max_retries>5</max_retries>
			<opt_iter>11</opt_iter>
			<dtmin>0</dtmin>
			<dtmax>0.1</dtmax>
			<aggressiveness>0</aggressiveness>
			<cutback>0.5</cutback>
			<dtforce>0</dtforce>
		</time_stepper>
		<solver type="solid">
			<symmetric_stiffness>symmetric</symmetric_stiffness>
			<equation_scheme>staggered</equation_scheme>
			<equation_order>default</equation_order>
			<optimize_bw>0</optimize_bw>
			<lstol>0.9</lstol>
			<lsmin>0.01</lsmin>
			<lsiter>5</lsiter>
			<max_refs>15</max_refs>
			<check_zero_diagonal>0</check_zero_diagonal>
			<zero_diagonal_tol>0</zero_diagonal_tol>
			<force_partition>0</force_partition>
			<reform_each_time_step>1</reform_each_time_step>
			<reform_augment>0</reform_augment>
			<diverge_reform>1</diverge_reform>
			<min_residual>1e-20</min_residual>
			<max_residual>0</max_residual>
			<dtol>0.001</dtol>
			<etol>0.01</etol>
			<rtol>0</rtol>
			<rhoi>-2</rhoi>
			<alpha>1</alpha>
			<beta>0.25</beta>
			<gamma>0.5</gamma>
			<logSolve>0</logSolve>
			<arc_length>0</arc_length>
			<arc_length_scale>0</arc_length_scale>
			<qn_method type="BFGS">
				<max_ups>10</max_ups>
				<max_buffer_size>0</max_buffer_size>
				<cycle_buffer>1</cycle_buffer>
				<cmax>100000</cmax>
			</qn_method>
		</solver>
	</Control>
	<Globals>
		<Constants>
			<T>0</T>
			<P>0</P>
			<R>8.31446</R>
			<Fc>96485.3</Fc>
		</Constants>
	</Globals>
	<Material>
		<material id="1" name="Material2" type="DiHuMaterial">
			<density>10</density>
			<k>1000</k>
			<pressure_model>default</pressure_model>
			<c1>3.176e-10</c1>
			<c2>1.813</c2>
			<c3>0</c3>
			<c4>1</c4>
			<c5>0.01075</c5>
			<lam_max>1</lam_max>
			<fiber type="vector">
				<vector>0,0,1</vector>
			</fiber>
			<active_contraction type="DiHuContraction">
				<pmax>7.3</pmax>
				<lam_opt>1.2</lam_opt>
				<enable_force_length_relation>1</enable_force_length_relation>
			</active_contraction>
		</material>
	</Material>
	<Mesh>
		<Nodes name="Object2">
			<node id="1">0,0,0</node>
			<node id="2">3,0,0</node>
			<node id="3">3,3,0</node>
			<node id="4">0,3,0</node>
			<node id="5">0,0,12</node>
			<node id="6">3,0,12</node>
			<node id="7">3,3,12</node>
			<node id="8">0,3,12</node>
			<node id="9">1,0,0</node>
			<node id="10">2,0,0</node>
			<node id="11">3,2.22044605e-16,0.666666667</node>
			<node id="12">3,0,1.33333333</node>
			<node id="13">3,0,2</node>
			<node id="14">3,0,2.66666667</node>
			<node id="15">3,0,3.33333333</node>
			<node id="16">3,0,4</node>
			<node id="17">3,0,4.66666667</node>
			<node id="18">3,0,5.33333333</node>
			<node id="19">3,0,6</node>
			<node id="20">3,0,6.66666667</node>
<!-- ... 284 like lines cut -->
		</Nodes>
		<Elements type="hex8" name="MusclePart">
			<elem id="1">1,9,231,90,46,93,237,196</elem>
			<elem id="2">9,10,232,231,93,94,238,237</elem>
			<elem id="3">10,2,47,232,94,11,127,238</elem>
			<elem id="4">90,231,229,89,196,237,239,195</elem>
			<elem id="5">231,232,230,229,237,238,240,239</elem>
			<elem id="6">232,47,48,230,238,127,128,240</elem>
			<elem id="7">89,229,69,4,195,239,162,70</elem>
			<elem id="8">229,230,68,69,239,240,161,162</elem>
			<elem id="9">230,48,3,68,240,128,49,161</elem>
			<elem id="10">46,93,237,196,45,95,241,198</elem>
			<elem id="11">93,94,238,237,95,96,242,241</elem>
			<elem id="12">94,11,127,238,96,12,129,242</elem>
			<elem id="13">196,237,239,195,198,241,243,197</elem>
			<elem id="14">237,238,240,239,241,242,244,243</elem>
			<elem id="15">238,127,128,240,242,129,130,244</elem>
			<elem id="16">195,239,162,70,197,243,164,71</elem>
			<elem id="17">239,240,161,162,243,244,163,164</elem>
			<elem id="18">240,128,49,161,244,130,50,163</elem>
			<elem id="19">45,95,241,198,44,97,245,200</elem>
			<elem id="20">95,96,242,241,97,98,246,245</elem>
<!-- ... 142 like lines cut -->
		</Elements>
		<Surface name="ZeroDisplacement1">
			<quad4 id="1">4,69,229,89</quad4>
			<quad4 id="2">69,68,230,229</quad4>
			<quad4 id="3">68,3,48,230</quad4>
			<quad4 id="4">89,229,231,90</quad4>
			<quad4 id="5">229,230,232,231</quad4>
			<quad4 id="6">230,48,47,232</quad4>
			<quad4 id="7">90,231,9,1</quad4>
			<quad4 id="8">231,232,10,9</quad4>
			<quad4 id="9">232,47,2,10</quad4>
		</Surface>
	</Mesh>
	<MeshDomains>
		<SolidDomain name="MusclePart" mat="Material2"/>
	</MeshDomains>
	<Boundary>
		<bc name="ZeroDisplacement1" node_set="@surface:ZeroDisplacement1" type="zero displacement">
			<x_dof>1</x_dof>
			<y_dof>1</y_dof>
			<z_dof>1</z_dof>
		</bc>
	</Boundary>
	<Output>
		<plotfile type="febio">
			<var type="displacement"/>
			<var type="stress"/>
			<var type="relative volume"/>
		</plotfile>
	</Output>
</febio_spec>
