<?xml version="1.0" encoding="ISO-8859-1"?>
<febio_spec version="4.0">
	<Module type="solid"/>
	<Code>
		<callback name="precice_callback"/>
	</Code>
	<Control>
		<analysis>DYNAMIC</analysis>
		<time_steps>30</time_steps>
		<step_size>1.0</step_size>
		<plot_zero_state>0</plot_zero_state>
		<plot_range>0,-1</plot_range>
		<plot_level>PLOT_MAJOR_ITRS</plot_level>
		<output_level>OUTPUT_MAJOR_ITRS</output_level>
		<plot_stride>1</plot_stride>
		<adaptor_re_solve>1</adaptor_re_solve>
		<time_stepper type="default">
			<max_retries>5</max_retries>
			<opt_iter>11</opt_iter>
			<dtmin>0</dtmin>
			<dtmax>1.0</dtmax>
			<aggressiveness>0</aggressiveness>
			<cutback>0.5</cutback>
			<dtforce>0</dtforce>
		</time_stepper>
		<solver type="solid">
			<symmetric_stiffness>symmetric</symmetric_stiffness>
			<equation_scheme>staggered</equation_scheme>
			<equation_order>default</equation_order>
			<optimize_bw>0</optimize_bw>
			<lstol>0.9</lstol>
			<lsmin>0.01</lsmin>
			<lsiter>5</lsiter>
			<max_refs>15</max_refs>
			<check_zero_diagonal>0</check_zero_diagonal>
			<zero_diagonal_tol>0</zero_diagonal_tol>
			<force_partition>0</force_partition>
			<reform_each_time_step>1</reform_each_time_step>
			<reform_augment>0</reform_augment>
			<diverge_reform>1</diverge_reform>
			<min_residual>1e-20</min_residual>
			<max_residual>0</max_residual>
			<dtol>0.001</dtol>
			<etol>0.01</etol>
			<rtol>0</rtol>
			<rhoi>-2</rhoi>
			<alpha>1</alpha>
			<beta>0.25</beta>
			<gamma>0.5</gamma>
			<logSolve>0</logSolve>
			<arc_length>0</arc_length>
			<arc_length_scale>0</arc_length_scale>
			<qn_method type="BFGS">
				<max_ups>10</max_ups>
				<max_buffer_size>0</max_buffer_size>
				<cycle_buffer>1</cycle_buffer>
				<cmax>100000</cmax>
			</qn_method>
		</solver>
	</Control>
	<Globals>
		<Constants>
			<T>0</T>
			<P>0</P>
			<R>8.31446</R>
			<Fc>96485.3</Fc>
		</Constants>
	</Globals>
	<Material>
		<material id="1" name="Material2" type="DiHuMaterial">
			<density>10</density>
			<k>1000</k>
			<pressure_model>default</pressure_model>
			<c1>3.176e-10</c1>
			<c2>1.813</c2>
			<c3>0</c3>
			<c4>1</c4>
			<c5>0.01075</c5>
			<lam_max>1</lam_max>
			<fiber type="vector">
				<vector>0,0,1</vector>
			</fiber>
			<active_contraction type="DiHuContraction">
				<pmax>7.3</pmax>
				<lam_opt>1.2</lam_opt>
				<enable_force_length_relation>1</enable_force_length_relation>
			</active_contraction>
		</material>
	</Material>
	<Mesh>
		<Nodes name="Object2">
			<node id="1">0,0,0</node>
			<node id="2">3,0,0</node>
			<node id="3">3,3,0</node>
			<node id="4">0,3,0</node>
			<node id="5">0,0,12</node>
			<node id="6">3,0,12</node>
			<node id="7">3,3,12</node>
			<node id="8">0,3,12</node>
			<node id="9">1,0,0</node>
			<node id="10">2,0,0</node>
			<node id="11">3,0,0.5</node>
			<node id="12">3,0,1</node>
			<node id="13">3,0,1.5</node>
			<node id="14">3,0,2</node>
			<node id="15">3,0,2.5</node>
			<node id="16">3,0,3</node>
			<node id="17">3,0,3.5</node>
			<node id="18">3,0,4</node>
			<node id="19">3,0,4.5</node>
			<node id="20">3,0,5</node>
<!-- ... 380 like lines cut -->
		</Nodes>
		<Elements type="hex8" name="MusclePart">
			<elem id="1">1,9,303,114,58,117,309,256</elem>
			<elem id="2">9,10,304,303,117,118,310,309</elem>
			<elem id="3">10,2,59,304,118,11,163,310</elem>
			<elem id="4">114,303,301,113,256,309,311,255</elem>
			<elem id="5">303,304,302,301,309,310,312,311</elem>
			<elem id="6">304,59,60,302,310,163,164,312</elem>
			<elem id="7">113,301,87,4,255,311,210,88</elem>
			<elem id="8">301,302,86,87,311,312,209,210</elem>
			<elem id="9">302,60,3,86,312,164,61,209</elem>
			<elem id="10">58,117,309,256,57,119,313,258</elem>
			<elem id="11">117,118,310,309,119,120,314,313</elem>
			<elem id="12">118,11,163,310,120,12,165,314</elem>
			<elem id="13">256,309,311,255,258,313,315,257</elem>
			<elem id="14">309,310,312,311,313,314,316,315</elem>
			<elem id="15">310,163,164,312,314,165,166,316</elem>
			<elem id="16">255,311,210,88,257,315,212,89</elem>
			<elem id="17">311,312,209,210,315,316,211,212</elem>
			<elem id="18">312,164,61,209,316,166,62,211</elem>
			<elem id="19">57,119,313,258,56,121,317,260</elem>
			<elem id="20">119,120,314,313,121,122,318,317</elem>
<!-- ... 196 like lines cut -->
		</Elements>
		<Surface name="ZeroDisplacement1">
			<quad4 id="1">4,87,301,113</quad4>
			<quad4 id="2">87,86,302,301</quad4>
			<quad4 id="3">86,3,60,302</quad4>
			<quad4 id="4">113,301,303,114</quad4>
			<quad4 id="5">301,302,304,303</quad4>
			<quad4 id="6">302,60,59,304</quad4>
			<quad4 id="7">114,303,9,1</quad4>
			<quad4 id="8">303,304,10,9</quad4>
			<quad4 id="9">304,59,2,10</quad4>
		</Surface>
	</Mesh>
	<MeshDomains>
		<SolidDomain name="MusclePart" mat="Material2"/>
	</MeshDomains>
	<Boundary>
		<bc name="ZeroDisplacement1" node_set="@surface:ZeroDisplacement1" type="zero displacement">
			<x_dof>1</x_dof>
			<y_dof>1</y_dof>
			<z_dof>1</z_dof>
		</bc>
	</Boundary>
	<Output>
		<plotfile type="febio">
			<var type="displacement"/>
			<var type="stress"/>
			<var type="relative volume"/>
		</plotfile>
	</Output>
</febio_spec>
