FoamFile
{
    version     2.0;
    format      ascii;
    class       dictionary;
    object      transportProperties;
}

transportModel  Newtonian;

nu              nu [ 0 2 -1 0 0 0 0 ] 0.000001004;
rho             [1 -3 0 0 0 0 0] 998.25;
g               [0 1 -2 0 0 0 0]  (0 -9.81 0);

