*INCLUDE, INPUT=all.msh
*INCLUDE, INPUT=fix1_beam.nam
*INCLUDE, INPUT=interface_beam.nam
*INCLUDE, INPUT=bcFlux.nam

*MATERIAL, Name=EL
*ELASTIC
 400000, 0.3
*DENSITY
 3000
*SPECIFIC HEAT
446
*CONDUCTIVITY
50.,0
*expansion
12e-6

*INITIAL CONDITIONs, TYPE=TEMPERATURE
Nall, 400.

*PHYSICAL CONSTANTS,ABSOLUTE ZERO=0.

*SOLID SECTION, Elset=Eall, Material=EL
*STEP, NLGEOM, INC=1000000
** DYNAMIC, DIRECT
*COUPLED TEMPERATURE-DISPLACEMENT,DIRECT 
1.E-2, 10.0

** fix on the lower boundary from x to z.  
*BOUNDARY
Nfix1, 1, 3
** fix on all nodes for translation in y-dir, rotation about x- and z-axis

*BOUNDARY
Nall, 2, 2, 0 
Nall, 4, 4, 0 
Nall, 6, 6, 0 

*DFLUX
EbcFlux , BF, 100.

*CLOAD
 Nsurface, 1, 0.0
 Nsurface, 2, 0.0
 Nsurface, 3, 0.0
 
*NODE FILE
 U, NT
*EL FILE
 S, E, HFL
*END STEP
