*MATERIAL,NAME=User
*ELASTIC
5.6000E+06,0.4


*DENSITY
1.0000E+03
*EXPANSION
0.0000E+00

*SOLID SECTION,MATERIAL=User,ELSET=Eall

