/*---------------------------------------------------------------------------*\
  =========                 |
  \\      /  F ield         | OpenFOAM: The Open Source CFD Toolbox
   \\    /   O peration     | Website:  https://openfoam.org
    \\  /    A nd           | Version:  6
     \\/     M anipulation  |
\*---------------------------------------------------------------------------*/
Build  : 6-6257b17a4cf8
Exec   : blockMesh -case Fluid
Date   : Feb 13 2019
Time   : 10:37:22
Host   : "benjamin-ThinkPad-X1-Yoga-2nd"
PID    : 25533
I/O    : uncollated
Case   : ./Fluid
nProcs : 1
sigFpe : Enabling floating point exception trapping (FOAM_SIGFPE).
fileModificationChecking : Monitoring run-time modified files using timeStampMaster (fileModificationSkew 10)
allowSystemOperations : Allowing user-supplied system call operations

// * * * * * * * * * * * * * * * * * * * * * * * * * * * * * * * * * * * * * //
Create time

Creating block mesh from
    "./Fluid/system/blockMeshDict"
Creating block edges
No non-planar block faces defined
Creating topology blocks
Creating topology patches

Creating block mesh topology
--> FOAM Warning : 
    From function Foam::polyMesh::polyMesh(const Foam::IOobject&, const Foam::Xfer<Foam::Field<Foam::Vector<double> > >&, const cellShapeList&, const faceListList&, const wordList&, const Foam::PtrList<Foam::dictionary>&, const Foam::word&, const Foam::word&, bool)
    in file meshes/polyMesh/polyMeshFromShapeMesh.C at line 871
    Found 6 undefined faces in mesh; adding to default patch.

Check topology

	Basic statistics
		Number of internal faces : 2
		Number of boundary faces : 14
		Number of defined boundary faces : 14
		Number of undefined boundary faces : 0
	Checking patch -> block consistency

Creating block offsets
Creating merge list .

Creating polyMesh from blockMesh
Creating patches
Creating cells
Creating points with scale 1
    Block 0 cell size :
        i : 0.111478 .. 0.0222956
        j : 0.0232699 .. 0.349049
        k : 0.4 .. 0.4

    Block 1 cell size :
        i : 0.0024959 .. 0.0124795
        j : 0.0232699 .. 0.349049
        k : 0.4 .. 0.4

    Block 2 cell size :
        i : 0.0882353 .. 0.0882353
        j : 0.0232699 .. 0.349049
        k : 0.4 .. 0.4


Writing polyMesh
----------------
Mesh Information
----------------
  boundingBox: (-4.5 0 0) (5.5 5 0.4)
  nPoints: 24696
  nCells: 12013
  nFaces: 48386
  nInternalFaces: 23692
----------------
Patches
----------------
  patch 0 (start: 23692 size: 41) name: inlet
  patch 1 (start: 23733 size: 41) name: outlet
  patch 2 (start: 23774 size: 293) name: top
  patch 3 (start: 24067 size: 81) name: slip-bottom
  patch 4 (start: 24148 size: 51) name: bottom
  patch 5 (start: 24199 size: 161) name: interface
  patch 6 (start: 24360 size: 24026) name: defaultFaces

End

