FoamFile
{
    version     2.0;
    format      ascii;
    class       dictionary;
    object      mechanicalProperties;
}

planeStress no;

mechanical
(
    tube
    {
        type        linearElastic;
        rho         rho [1 -3 0 0 0 0 0] 1200;
        E           E [1 -1 -2 0 0 0 0] 300000;
        nu          nu [0 0 0 0 0 0 0] 0.3;
    }
);
