** written by FreeCAD inp file writer for CalculiX,Abaqus meshes
** highest dimension mesh elements only.

** Nodes
*Node, NSET=Nall
1, -7.08087682724, 4.05939912796, 2.628201007843
2, -7.847014904022, -4.512721538544, 3.407018184662
3, -6.443078517914, -3.514016151428, 3.414401292801
4, -5.495606899261, -2.170355558395, 3.271907806396
5, -5.038571357727, -0.6198604106903, 3.27880859375
6, -5.094932079315, 0.9696951508522, 3.296936511993
7, -5.805288314819, 2.721101760864, 3.185507059097
8, -6.619695186615, 3.684228420258, 3.917627334595
9, -7.924686908722, 4.548964500427, 3.783983230591
10, -8.317225456238, -4.708319187164, 1.805183768272
11, -6.818140983582, -3.856912136078, 1.669235467911
12, -5.734673023224, -2.609019756317, 1.591163396835
13, -5.137391090393, -1.164058566093, 1.634409785271
14, -5.01656627655, 0.4066810011864, 1.635067224503
15, -5.41265296936, 1.989031672478, 1.574247956276
16, -6.345587253571, 3.412516117096, 1.420672059059
17, -7.607948303223, 4.390682220459, 1.261323690414
18, -8.99072933197, 4.897078037262, 1.139331221581
19, -8.554717063904, 4.786560058594, 2.4637196064
20, 7.08251619339, 4.060577392578, 2.506053209305
** ... 1079 like lines cut


** Volume elements
*Element, TYPE=C3D4, ELSET=Evolumes
5321, 566, 570, 582, 603
5322, 499, 374, 286, 501
5323, 142, 723, 143, 770
5324, 97, 729, 692, 723
5325, 1013, 1016, 567, 1012
5326, 499, 374, 375, 286
5327, 584, 621, 619, 534
5328, 611, 565, 564, 609
5329, 499, 374, 306, 375
5330, 611, 565, 568, 564
5331, 942, 940, 18, 653
5332, 1049, 1052, 581, 580
5333, 818, 816, 187, 1077
5334, 856, 461, 379, 958
5335, 499, 374, 501, 306
5336, 39, 228, 40, 22
5337, 838, 840, 837, 258
5338, 334, 377, 437, 335
5339, 846, 746, 779, 654
5340, 119, 132, 224, 37
** ... 3098 like lines cut

** Define element set Eall
*ELSET, ELSET=Eall
Evolumes



***********************************************************
** Element sets for materials and FEM element type (solid, shell, beam, fluid)
*ELSET,ELSET=MaterialSolidSolid
Evolumes

***********************************************************
** constraints fixed node sets
** ConstraintFixed
*NSET,NSET=ConstraintFixed
1033,
1034,
1035,
1036,
1037,
1038,
1039,
1040,
1041,
1042,
1043,
1044,

** Physical constants for SI(mm) unit system with Kelvins
*PHYSICAL CONSTANTS, ABSOLUTE ZERO=0, STEFAN BOLTZMANN=5.670374419e-11

***********************************************************
** Materials
** see information about units at file end
** FreeCAD material name: CalculiX-Steel
** MaterialSolid
*MATERIAL, NAME=MaterialSolid
*ELASTIC
210000,0.3

***********************************************************
** Sections
*SOLID SECTION, ELSET=MaterialSolidSolid, MATERIAL=MaterialSolid

***********************************************************
** At least one step is needed to run an CalculiX analysis of FreeCAD
*STEP, INC=2000
*STATIC


***********************************************************
** Fixed Constraints
** ConstraintFixed
*BOUNDARY
ConstraintFixed,1
ConstraintFixed,2
ConstraintFixed,3


***********************************************************
** constraints force node loads
*CLOAD
** ConstraintForce
** node loads on shape: Mesh001_solid:Face44
1016,2,-1.688028706445
1022,2,-1.688028706445
1023,2,-1.688028706445

** node loads on shape: Mesh001_solid:Face50
1013,2,-1.688028706445
1016,2,-1.688028706445
1022,2,-1.688028706445

** node loads on shape: Mesh001_solid:Face51
1012,2,-1.670449905925
1013,2,-1.670449905925
1016,2,-1.670449905925

** node loads on shape: Mesh001_solid:Face54
1010,2,-1.761274271541
1012,2,-1.761274271541
1013,2,-1.761274271541

** node loads on shape: Mesh001_solid:Face53
1010,2,-1.701315508948
1011,2,-1.701315508948
1012,2,-1.701315508948

** node loads on shape: Mesh001_solid:Face56
1008,2,-1.610491143333
1010,2,-1.610491143333
1011,2,-1.610491143333

** node loads on shape: Mesh001_solid:Face55
1008,2,-1.634906331698
1009,2,-1.634906331698
1011,2,-1.634906331698

** node loads on shape: Mesh001_solid:Face59
1005,2,-1.634906331698
1008,2,-1.634906331698
1009,2,-1.634906331698

** node loads on shape: Mesh001_solid:Face58
1005,2,-1.638632880317
1007,2,-1.638632880317
1009,2,-1.638632880317

** node loads on shape: Mesh001_solid:Face57
1005,2,-1.638632880317
1006,2,-1.638632880317
1007,2,-1.638632880317



***********************************************************
** Outputs --> frd file
*NODE FILE
U
*EL FILE
S, E
** outputs --> dat file
** reaction forces for Constraint fixed
*NODE PRINT, NSET=ConstraintFixed, TOTALS=ONLY
RF

*OUTPUT, FREQUENCY=1
***********************************************************
*END STEP

***********************************************************
** CalculiX Input file
**   written by    --> FreeCAD 1.0.0
**   written on    --> Mon Jun 16 17:05:10 2025
**   file name     --> notch_model_coarse.FCStd
**   analysis name --> Analysis
**
**
***********************************************************
**  About units:
**  See ccx manual, ccx does not know about any unit.
**  Golden rule: The user must make sure that the numbers they provide have consistent units.
**  The user is the FreeCAD calculix writer module ;-)
**
**  The unit system which is used at Guido Dhondt's company: mm, N, s, K
**  Since Length and Mass are connected by Force, if Length is mm the Mass is in t to get N
**  The following units are used to write to inp file:
**
**  Length: mm (this includes the mesh geometry)
**  Mass: t
**  TimeSpan: s
**  Temperature: K
**
**  This leads to:
**  Force: N
**  Pressure: N/mm^2 == MPa (Young's Modulus has unit Pressure)
**  Density: t/mm^3
**  Gravity: mm/s^2
**  Thermal conductivity: t*mm/K/s^3 == as W/m/K == kW/mm/K
**  Specific Heat: mm^2/s^2/K = J/kg/K == kJ/t/K
**
