**
**   Structure: part 1 of cantilever beam.
**   
**
*INCLUDE, INPUT=./all.msh
*INCLUDE, INPUT=./fix1_beam.nam
*INCLUDE, INPUT=./interface_beam.nam
*BOUNDARY
FIX, 1, 3
*BOUNDARY
Nsurface, 1, 3
*MATERIAL, NAME=EL
*ELASTIC
2.1E11, .3
*DENSITY
7800
*SOLID SECTION, ELSET=Eall, MATERIAL=EL
*STEP, INC=10000
*DYNAMIC, DIRECT
1E-2, 0.5, 1E-2, 1E-2
*CLOAD
Nsurface, 1, 0.
Nsurface, 2, 0. 
Nsurface, 3, 0.
*NODE FILE
U
*NODE PRINT,NSET=Nall
U,RF
*END STEP
