<?xml version="1.0" encoding="ISO-8859-1"?>
<febio_spec version="4.0">
	<Module type="solid"/>
	<Control>
		<analysis>DYNAMIC</analysis>
		<time_steps>200</time_steps>
		<step_size>0.0001</step_size>
		<plot_zero_state>0</plot_zero_state>
		<plot_range>0,-1</plot_range>
		<plot_level>PLOT_MAJOR_ITRS</plot_level>
		<output_level>OUTPUT_MAJOR_ITRS</output_level>
		<plot_stride>1</plot_stride>
		<adaptor_re_solve>1</adaptor_re_solve>
		<solver type="solid">
			<symmetric_stiffness>symmetric</symmetric_stiffness>
			<equation_scheme>staggered</equation_scheme>
			<equation_order>default</equation_order>
			<optimize_bw>0</optimize_bw>
			<lstol>0.9</lstol>
			<lsmin>0.01</lsmin>
			<lsiter>5</lsiter>
			<max_refs>15</max_refs>
			<check_zero_diagonal>0</check_zero_diagonal>
			<zero_diagonal_tol>0</zero_diagonal_tol>
			<force_partition>0</force_partition>
			<reform_each_time_step>1</reform_each_time_step>
			<reform_augment>0</reform_augment>
			<diverge_reform>1</diverge_reform>
			<min_residual>1e-20</min_residual>
			<max_residual>0</max_residual>
			<dtol>0.001</dtol>
			<etol>0.01</etol>
			<rtol>0</rtol>
			<rhoi>-2</rhoi>
			<alpha>1</alpha>
			<beta>0.25</beta>
			<gamma>0.5</gamma>
			<logSolve>0</logSolve>
			<arc_length>0</arc_length>
			<arc_length_scale>0</arc_length_scale>
			<qn_method type="BFGS">
				<max_ups>10</max_ups>
				<max_buffer_size>0</max_buffer_size>
				<cycle_buffer>1</cycle_buffer>
				<cmax>100000</cmax>
			</qn_method>
		</solver>
	</Control>
	<Globals>
		<Constants>
			<T>0</T>
			<R>0</R>
			<Fc>0</Fc>
		</Constants>
	</Globals>
	<Material>
<!--
density of water 1000 kg/m³
bulk modulus chose high so that material is nearly incompressible
[c1, c2] = [3.176e-10, 1.813] in opendihu; unit is (kg / (cm * ms²)) = (kg / 0.01 m * 0.000001 s²)) = 10e+08 (kg / (m * s²))
but 1 (kg) in opendihu is actually 1 (dg (deci gramm)) = 10e-04 kg
so 10e+08 (kg / (m * s²)) is actually 10e+08 (dg / (m * s²)) = 10e+04 (kg / (m * s²))
c1 = 3.176e-10 (kg / (cm * ms²)) = 3.176e-06 (kg / (m * s²))
c2 = 1.813 (kg / (cm * ms²)) = 1.813e+04 (kg / (m * s²))
-->
		<material id="1" name="Material1" type="Mooney-Rivlin">
			<density>1000</density>
			<k>1e+10</k>
			<pressure_model>default</pressure_model>
			<c1>3.176e-06</c1>
			<c2>18130</c2>
		</material>
	</Material>
	<Mesh>
		<Nodes name="Object1">
			<node id="1">0,0,0</node>
			<node id="2">0.02,0,0</node>
			<node id="3">0.02,0.02,0</node>
			<node id="4">0,0.02,0</node>
			<node id="5">0,0,0.06</node>
			<node id="6">0.02,0,0.06</node>
			<node id="7">0.02,0.02,0.06</node>
			<node id="8">0,0.02,0.06</node>
			<node id="9">0.005,0,0</node>
			<node id="10">0.01,0,0</node>
			<node id="11">0.015,0,0</node>
			<node id="12">0.02,0,0.005</node>
			<node id="13">0.02,0,0.01</node>
			<node id="14">0.02,0,0.015</node>
			<node id="15">0.02,-1.73472348e-18,0.02</node>
			<node id="16">0.02,0,0.025</node>
			<node id="17">0.02,1.73472348e-18,0.03</node>
			<node id="18">0.02,0,0.035</node>
			<node id="19">0.02,0,0.04</node>
			<node id="20">0.02,0,0.045</node>
<!-- ... 305 like lines cut -->
		</Nodes>
		<Elements type="hex8" name="Part1">
			<elem id="1">1,9,215,73,36,77,227,178</elem>
			<elem id="2">9,10,216,215,77,78,228,227</elem>
			<elem id="3">10,11,217,216,78,79,229,228</elem>
			<elem id="4">11,2,37,217,79,12,110,229</elem>
			<elem id="5">73,215,212,72,178,227,230,177</elem>
			<elem id="6">215,216,213,212,227,228,231,230</elem>
			<elem id="7">216,217,214,213,228,229,232,231</elem>
			<elem id="8">217,37,38,214,229,110,111,232</elem>
			<elem id="9">72,212,209,71,177,230,233,176</elem>
			<elem id="10">212,213,210,209,230,231,234,233</elem>
			<elem id="11">213,214,211,210,231,232,235,234</elem>
			<elem id="12">214,38,39,211,232,111,112,235</elem>
			<elem id="13">71,209,56,4,176,233,145,57</elem>
			<elem id="14">209,210,55,56,233,234,144,145</elem>
			<elem id="15">210,211,54,55,234,235,143,144</elem>
			<elem id="16">211,39,3,54,235,112,40,143</elem>
			<elem id="17">36,77,227,178,35,80,236,181</elem>
			<elem id="18">77,78,228,227,80,81,237,236</elem>
			<elem id="19">78,79,229,228,81,82,238,237</elem>
			<elem id="20">79,12,110,229,82,13,113,238</elem>
<!-- ... 172 like lines cut -->
		</Elements>
		<Surface name="Dirichlet">
			<quad4 id="1">4,56,209,71</quad4>
			<quad4 id="2">56,55,210,209</quad4>
			<quad4 id="3">55,54,211,210</quad4>
			<quad4 id="4">54,3,39,211</quad4>
			<quad4 id="5">71,209,212,72</quad4>
			<quad4 id="6">209,210,213,212</quad4>
			<quad4 id="7">210,211,214,213</quad4>
			<quad4 id="8">211,39,38,214</quad4>
			<quad4 id="9">72,212,215,73</quad4>
			<quad4 id="10">212,213,216,215</quad4>
			<quad4 id="11">213,214,217,216</quad4>
			<quad4 id="12">214,38,37,217</quad4>
			<quad4 id="13">73,215,9,1</quad4>
			<quad4 id="14">215,216,10,9</quad4>
			<quad4 id="15">216,217,11,10</quad4>
			<quad4 id="16">217,37,2,11</quad4>
		</Surface>
		<Surface name="Force1">
			<quad4 id="1">5,25,218,74</quad4>
			<quad4 id="2">25,24,219,218</quad4>
			<quad4 id="3">24,23,220,219</quad4>
			<quad4 id="4">23,6,53,220</quad4>
			<quad4 id="5">74,218,221,75</quad4>
			<quad4 id="6">218,219,222,221</quad4>
			<quad4 id="7">219,220,223,222</quad4>
			<quad4 id="8">220,53,52,223</quad4>
			<quad4 id="9">75,221,224,76</quad4>
			<quad4 id="10">221,222,225,224</quad4>
			<quad4 id="11">222,223,226,225</quad4>
			<quad4 id="12">223,52,51,226</quad4>
			<quad4 id="13">76,224,68,8</quad4>
			<quad4 id="14">224,225,69,68</quad4>
			<quad4 id="15">225,226,70,69</quad4>
			<quad4 id="16">226,51,7,70</quad4>
		</Surface>
	</Mesh>
	<MeshDomains>
		<SolidDomain name="Part1" mat="Material1"/>
	</MeshDomains>
	<Boundary>
		<bc name="Dirichlet" node_set="@surface:Dirichlet" type="zero displacement">
			<x_dof>1</x_dof>
			<y_dof>1</y_dof>
			<z_dof>1</z_dof>
		</bc>
	</Boundary>
	<Loads>
		<surface_load name="Force1" surface="Force1" type="force">
			<scale lc="1">1</scale>
			<force>0,0,5</force>
			<shell_bottom>0</shell_bottom>
		</surface_load>
	</Loads>
	<LoadData>
		<load_controller id="1" name="LC1" type="loadcurve">
			<interpolate>LINEAR</interpolate>
			<extend>CONSTANT</extend>
			<points>
				<pt>0,0</pt>
				<pt>0.1,5</pt>
				<pt>0.2,10</pt>
				<pt>0.3,15</pt>
				<pt>0.4,20</pt>
				<pt>0.5,25</pt>
				<pt>0.6,30</pt>
				<pt>0.7,35</pt>
				<pt>0.8,40</pt>
				<pt>0.9,45</pt>
				<pt>1,50</pt>
			</points>
		</load_controller>
	</LoadData>
	<Output>
		<plotfile type="febio">
			<var type="displacement"/>
			<var type="stress"/>
		</plotfile>
	</Output>
</febio_spec>
